version 2
run AttachedMobility-0-20181219-21:46:19-33703
attr configname AttachedMobility
attr datetime 20181219-21:46:19
attr experiment AttachedMobility
attr inifile omnetpp.ini
attr iterationvars ""
attr iterationvarsf ""
attr measurement ""
attr network AODVNetwork
attr processid 33703
attr repetition 0
attr replication #0
attr resultdir results
attr runnumber 0
attr seedset 0
param *.numHosts 10
param *.hasVisualizer true
param *.visualizer.mobilityVisualizer.moduleFilter "\"**.mobility\""
param **.host[0].mobility.typename "\"CircleMobility\""
param **.host[0].mobility.cx 300m
param **.host[0].mobility.cy 200m
param **.host[0].mobility.r 150m
param **.host[0].mobility.speed 40mps
param **.host[*].mobility.typename "\"AttachedMobility\""
param **.host[*].mobility.mobilityModule "\"^.^.host[0].mobility\""
param **.host[1].mobility.offsetX 10m
param **.host[1].mobility.offsetHeading 90deg
param **.host[2].mobility.offsetX -50m
param **.host[2].mobility.offsetHeading -120deg
param **.host[3].mobility.offsetX 80m
param **.host[3].mobility.offsetHeading 130deg
param **.host[4].mobility.offsetX 150m
param **.host[4].mobility.offsetHeading 150deg
param **.host[5].mobility.offsetX -120m
param **.host[5].mobility.offsetHeading 180deg
param **.host[6].mobility.offsetX 190m
param **.host[6].mobility.offsetHeading 200deg
param **.host[7].mobility.offsetX 200m
param **.host[7].mobility.offsetHeading 230deg
param **.host[8].mobility.offsetX 220m
param **.host[8].mobility.offsetHeading 250deg
param **.host[9].mobility.offsetX -160m
param **.host[9].mobility.offsetHeading 290deg
param *.numHosts 10
param **.wlan[*].typename "\"AckingWirelessInterface\""
param **.wlan[*].bitrate 20Mbps
param **.wlan[*].mac.headerLength 20B
param **.wlan[*].radio.typename "\"UnitDiskRadio\""
param **.wlan[*].radio.transmitter.headerLength 96b
param **.wlan[*].radio.transmitter.communicationRange 40m
param **.wlan[*].radio.transmitter.interferenceRange 40m
param **.wlan[*].radio.transmitter.detectionRange 40m
param **.wlan[*].radio.receiver.ignoreInterference true
param **.aodv.activeRouteTimeout 1s
param **.radioMedium.rangeFilter "\"communicationRange\""
param **.refillPeriod 1s
param **.radioMedium.mediumLimitCache.communicationRange 40m
param **.radioMedium.neighborCache.typename "\"NeighborListNeighborCache\""
param **.radioMedium.neighborCache.range 40m
param **.constraintAreaMinX 0m
param **.constraintAreaMinY 0m
param **.constraintAreaMaxX 600m
param **.constraintAreaMaxY 600m
param **.constraintAreaMinZ 0m
param **.constraintAreaMaxZ 0m
param **.updateInterval 0.01s
param **.wlan[*].mgmt.frameCapacity 10
param **.wlan[*].mac.retryLimit 7
param **.hasStatus true
param *.hasVisualizer true
param *.visualizer.mobilityVisualizer.moduleFilter "\"**.mobility\""
param *.visualizer.mobilityVisualizer.displayMovementTrails false
param *.visualizer.mediumVisualizer.displayCommunicationRanges true
param *.visualizer.mediumVisualizer.displayInterferenceRanges false
param *.visualizer.mediumVisualizer.displaySignals false
param *.configurator.addStaticRoutes false
param *.host*.numApps 1
param *.host*.app[0].typename "\"UdpBasicApp\""
param *.host*.app[0].localPort 100
param *.host*.app[0].sendInterval 0.5s
param *.host*.app[0].messageLength 1000B
param **.hasIpv4 true
param **.hasIpv6 false
param **.hasGn false
param *.host*.app[0].destAddresses "\"host[*]\""
param *.host*.app[0].destPort 1000

vector 0 AODVNetwork.host[0].wlan[0].queue queueLength:vector ETV
attr interpolationmode sample-hold
attr title "queue length, vector"
vector 1 AODVNetwork.host[0].wlan[0].radio radioMode:vector ETV
attr interpolationmode sample-hold
attr source radioModeChanged
attr title "Radio mode, vector"
vector 2 AODVNetwork.host[1].wlan[0].queue queueLength:vector ETV
attr interpolationmode sample-hold
attr title "queue length, vector"
vector 3 AODVNetwork.host[1].wlan[0].radio radioMode:vector ETV
attr interpolationmode sample-hold
attr source radioModeChanged
attr title "Radio mode, vector"
vector 4 AODVNetwork.host[2].wlan[0].queue queueLength:vector ETV
attr interpolationmode sample-hold
attr title "queue length, vector"
vector 5 AODVNetwork.host[2].wlan[0].radio radioMode:vector ETV
attr interpolationmode sample-hold
attr source radioModeChanged
attr title "Radio mode, vector"
vector 6 AODVNetwork.host[3].wlan[0].queue queueLength:vector ETV
attr interpolationmode sample-hold
attr title "queue length, vector"
vector 7 AODVNetwork.host[3].wlan[0].radio radioMode:vector ETV
attr interpolationmode sample-hold
attr source radioModeChanged
attr title "Radio mode, vector"
vector 8 AODVNetwork.host[4].wlan[0].queue queueLength:vector ETV
attr interpolationmode sample-hold
attr title "queue length, vector"
vector 9 AODVNetwork.host[4].wlan[0].radio radioMode:vector ETV
attr interpolationmode sample-hold
attr source radioModeChanged
attr title "Radio mode, vector"
vector 10 AODVNetwork.host[5].wlan[0].queue queueLength:vector ETV
attr interpolationmode sample-hold
attr title "queue length, vector"
vector 11 AODVNetwork.host[5].wlan[0].radio radioMode:vector ETV
attr interpolationmode sample-hold
attr source radioModeChanged
attr title "Radio mode, vector"
vector 12 AODVNetwork.host[6].wlan[0].queue queueLength:vector ETV
attr interpolationmode sample-hold
attr title "queue length, vector"
vector 13 AODVNetwork.host[6].wlan[0].radio radioMode:vector ETV
attr interpolationmode sample-hold
attr source radioModeChanged
attr title "Radio mode, vector"
vector 14 AODVNetwork.host[7].wlan[0].queue queueLength:vector ETV
attr interpolationmode sample-hold
attr title "queue length, vector"
vector 15 AODVNetwork.host[7].wlan[0].radio radioMode:vector ETV
attr interpolationmode sample-hold
attr source radioModeChanged
attr title "Radio mode, vector"
vector 16 AODVNetwork.host[8].wlan[0].queue queueLength:vector ETV
attr interpolationmode sample-hold
attr title "queue length, vector"
vector 17 AODVNetwork.host[8].wlan[0].radio radioMode:vector ETV
attr interpolationmode sample-hold
attr source radioModeChanged
attr title "Radio mode, vector"
vector 18 AODVNetwork.host[9].wlan[0].queue queueLength:vector ETV
attr interpolationmode sample-hold
attr title "queue length, vector"
vector 19 AODVNetwork.host[9].wlan[0].radio radioMode:vector ETV
attr interpolationmode sample-hold
attr source radioModeChanged
attr title "Radio mode, vector"
vector 20 AODVNetwork.host[0].wlan[0].radio receptionState:vector ETV
attr interpolationmode sample-hold
attr source receptionStateChanged
attr title "Radio reception state, vector"
vector 21 AODVNetwork.host[0].wlan[0].radio transmissionState:vector ETV
attr interpolationmode sample-hold
attr source transmissionStateChanged
attr title "Radio transmission state, vector"
vector 22 AODVNetwork.host[1].wlan[0].radio receptionState:vector ETV
attr interpolationmode sample-hold
attr source receptionStateChanged
attr title "Radio reception state, vector"
vector 23 AODVNetwork.host[1].wlan[0].radio transmissionState:vector ETV
attr interpolationmode sample-hold
attr source transmissionStateChanged
attr title "Radio transmission state, vector"
vector 24 AODVNetwork.host[2].wlan[0].radio receptionState:vector ETV
attr interpolationmode sample-hold
attr source receptionStateChanged
attr title "Radio reception state, vector"
vector 25 AODVNetwork.host[2].wlan[0].radio transmissionState:vector ETV
attr interpolationmode sample-hold
attr source transmissionStateChanged
attr title "Radio transmission state, vector"
vector 26 AODVNetwork.host[3].wlan[0].radio receptionState:vector ETV
attr interpolationmode sample-hold
attr source receptionStateChanged
attr title "Radio reception state, vector"
vector 27 AODVNetwork.host[3].wlan[0].radio transmissionState:vector ETV
attr interpolationmode sample-hold
attr source transmissionStateChanged
attr title "Radio transmission state, vector"
vector 28 AODVNetwork.host[4].wlan[0].radio receptionState:vector ETV
attr interpolationmode sample-hold
attr source receptionStateChanged
attr title "Radio reception state, vector"
vector 29 AODVNetwork.host[4].wlan[0].radio transmissionState:vector ETV
attr interpolationmode sample-hold
attr source transmissionStateChanged
attr title "Radio transmission state, vector"
vector 30 AODVNetwork.host[5].wlan[0].radio receptionState:vector ETV
attr interpolationmode sample-hold
attr source receptionStateChanged
attr title "Radio reception state, vector"
vector 31 AODVNetwork.host[5].wlan[0].radio transmissionState:vector ETV
attr interpolationmode sample-hold
attr source transmissionStateChanged
attr title "Radio transmission state, vector"
vector 32 AODVNetwork.host[6].wlan[0].radio receptionState:vector ETV
attr interpolationmode sample-hold
attr source receptionStateChanged
attr title "Radio reception state, vector"
vector 33 AODVNetwork.host[6].wlan[0].radio transmissionState:vector ETV
attr interpolationmode sample-hold
attr source transmissionStateChanged
attr title "Radio transmission state, vector"
vector 34 AODVNetwork.host[7].wlan[0].radio receptionState:vector ETV
attr interpolationmode sample-hold
attr source receptionStateChanged
attr title "Radio reception state, vector"
vector 35 AODVNetwork.host[7].wlan[0].radio transmissionState:vector ETV
attr interpolationmode sample-hold
attr source transmissionStateChanged
attr title "Radio transmission state, vector"
vector 36 AODVNetwork.host[8].wlan[0].radio receptionState:vector ETV
attr interpolationmode sample-hold
attr source receptionStateChanged
attr title "Radio reception state, vector"
vector 37 AODVNetwork.host[8].wlan[0].radio transmissionState:vector ETV
attr interpolationmode sample-hold
attr source transmissionStateChanged
attr title "Radio transmission state, vector"
vector 38 AODVNetwork.host[9].wlan[0].radio receptionState:vector ETV
attr interpolationmode sample-hold
attr source receptionStateChanged
attr title "Radio reception state, vector"
vector 39 AODVNetwork.host[9].wlan[0].radio transmissionState:vector ETV
attr interpolationmode sample-hold
attr source transmissionStateChanged
attr title "Radio transmission state, vector"
vector 40 AODVNetwork.host[0].app[0] packetSent:vector(packetBytes) ETV
attr interpolationmode none
attr source packetSent
attr title "packets sent, vector(packetBytes)"
vector 41 AODVNetwork.host[1].app[0] packetSent:vector(packetBytes) ETV
attr interpolationmode none
attr source packetSent
attr title "packets sent, vector(packetBytes)"
vector 42 AODVNetwork.host[2].app[0] packetSent:vector(packetBytes) ETV
attr interpolationmode none
attr source packetSent
attr title "packets sent, vector(packetBytes)"
vector 43 AODVNetwork.host[3].app[0] packetSent:vector(packetBytes) ETV
attr interpolationmode none
attr source packetSent
attr title "packets sent, vector(packetBytes)"
vector 44 AODVNetwork.host[4].app[0] packetSent:vector(packetBytes) ETV
attr interpolationmode none
attr source packetSent
attr title "packets sent, vector(packetBytes)"
vector 45 AODVNetwork.host[5].app[0] packetSent:vector(packetBytes) ETV
attr interpolationmode none
attr source packetSent
attr title "packets sent, vector(packetBytes)"
vector 46 AODVNetwork.host[6].app[0] packetSent:vector(packetBytes) ETV
attr interpolationmode none
attr source packetSent
attr title "packets sent, vector(packetBytes)"
vector 47 AODVNetwork.host[7].app[0] packetSent:vector(packetBytes) ETV
attr interpolationmode none
attr source packetSent
attr title "packets sent, vector(packetBytes)"
vector 48 AODVNetwork.host[8].app[0] packetSent:vector(packetBytes) ETV
attr interpolationmode none
attr source packetSent
attr title "packets sent, vector(packetBytes)"
vector 49 AODVNetwork.host[9].app[0] packetSent:vector(packetBytes) ETV
attr interpolationmode none
attr source packetSent
attr title "packets sent, vector(packetBytes)"
vector 50 AODVNetwork.host[0].udp packetSent:vector(packetBytes) ETV
attr interpolationmode none
attr source packetSent
attr title "packets sent, vector(packetBytes)"
vector 51 AODVNetwork.host[1].udp packetSent:vector(packetBytes) ETV
attr interpolationmode none
attr source packetSent
attr title "packets sent, vector(packetBytes)"
vector 52 AODVNetwork.host[2].udp packetSent:vector(packetBytes) ETV
attr interpolationmode none
attr source packetSent
attr title "packets sent, vector(packetBytes)"
vector 53 AODVNetwork.host[3].udp packetSent:vector(packetBytes) ETV
attr interpolationmode none
attr source packetSent
attr title "packets sent, vector(packetBytes)"
vector 54 AODVNetwork.host[4].udp packetSent:vector(packetBytes) ETV
attr interpolationmode none
attr source packetSent
attr title "packets sent, vector(packetBytes)"
vector 55 AODVNetwork.host[5].udp packetSent:vector(packetBytes) ETV
attr interpolationmode none
attr source packetSent
attr title "packets sent, vector(packetBytes)"
vector 56 AODVNetwork.host[6].udp packetSent:vector(packetBytes) ETV
attr interpolationmode none
attr source packetSent
attr title "packets sent, vector(packetBytes)"
vector 57 AODVNetwork.host[7].udp packetSent:vector(packetBytes) ETV
attr interpolationmode none
attr source packetSent
attr title "packets sent, vector(packetBytes)"
vector 58 AODVNetwork.host[8].udp packetSent:vector(packetBytes) ETV
attr interpolationmode none
attr source packetSent
attr title "packets sent, vector(packetBytes)"
vector 59 AODVNetwork.host[9].udp packetSent:vector(packetBytes) ETV
attr interpolationmode none
attr source packetSent
attr title "packets sent, vector(packetBytes)"
vector 60 AODVNetwork.host[0].lo[0].lo rcvdPkFromHl:vector(packetBytes) ETV
attr interpolationmode none
attr source packetReceivedFromUpper
attr title "packets received from higher layer, vector(packetBytes)"
vector 61 AODVNetwork.host[0].lo[0].lo passedUpPk:vector(packetBytes) ETV
attr interpolationmode none
attr source packetSentToUpper
attr title "packets passed to higher layer, vector(packetBytes)"
vector 62 AODVNetwork.host[0].udp packetReceived:vector(packetBytes) ETV
attr interpolationmode none
attr source packetReceived
attr title "packets received, vector(packetBytes)"
vector 63 AODVNetwork.host[0].udp droppedPkWrongPort:vector(count) ETV
attr interpolationmode none
attr source packetDropReasonIsNoPortFound(packetDropped)
attr title "packets dropped (wrong port), vector(count)"
vector 64 AODVNetwork.host[6].wlan[0].queue packetReceived:vector(packetBytes) ETV
attr interpolationmode none
attr title "received packets, vector(packetBytes)"
vector 65 AODVNetwork.host[6].wlan[0].queue queueingTime:vector ETV
attr interpolationmode none
attr title "queueing time, vector"
vector 66 AODVNetwork.host[6].wlan[0].mac rcvdPkFromHl:vector(packetBytes) ETV
attr interpolationmode none
attr source packetReceivedFromUpper
attr title "packets received from higher layer, vector(packetBytes)"
vector 67 AODVNetwork.host[6].wlan[0].mac sentDownPk:vector(packetBytes) ETV
attr interpolationmode none
attr source packetSentToLower
attr title "packets sent to lower layer, vector(packetBytes)"
vector 68 AODVNetwork.host[7].wlan[0].mac rcvdPkFromLl:vector(packetBytes) ETV
attr interpolationmode none
attr source packetReceivedFromLower
attr title "packets received from lower layer, vector(packetBytes)"
vector 69 AODVNetwork.host[7].wlan[0].mac passedUpPk:vector(packetBytes) ETV
attr interpolationmode none
attr source packetSentToUpper
attr title "packets passed to higher layer, vector(packetBytes)"
vector 70 AODVNetwork.host[8].wlan[0].mac rcvdPkFromLl:vector(packetBytes) ETV
attr interpolationmode none
attr source packetReceivedFromLower
attr title "packets received from lower layer, vector(packetBytes)"
vector 71 AODVNetwork.host[8].wlan[0].mac passedUpPk:vector(packetBytes) ETV
attr interpolationmode none
attr source packetSentToUpper
attr title "packets passed to higher layer, vector(packetBytes)"
vector 72 AODVNetwork.host[4].wlan[0].mac rcvdPkFromLl:vector(packetBytes) ETV
attr interpolationmode none
attr source packetReceivedFromLower
attr title "packets received from lower layer, vector(packetBytes)"
vector 73 AODVNetwork.host[4].wlan[0].mac passedUpPk:vector(packetBytes) ETV
attr interpolationmode none
attr source packetSentToUpper
attr title "packets passed to higher layer, vector(packetBytes)"
vector 74 AODVNetwork.host[8].wlan[0].queue packetReceived:vector(packetBytes) ETV
attr interpolationmode none
attr title "received packets, vector(packetBytes)"
vector 75 AODVNetwork.host[8].wlan[0].queue queueingTime:vector ETV
attr interpolationmode none
attr title "queueing time, vector"
vector 76 AODVNetwork.host[8].wlan[0].mac rcvdPkFromHl:vector(packetBytes) ETV
attr interpolationmode none
attr source packetReceivedFromUpper
attr title "packets received from higher layer, vector(packetBytes)"
vector 77 AODVNetwork.host[8].wlan[0].mac sentDownPk:vector(packetBytes) ETV
attr interpolationmode none
attr source packetSentToLower
attr title "packets sent to lower layer, vector(packetBytes)"
vector 78 AODVNetwork.host[6].wlan[0].mac rcvdPkFromLl:vector(packetBytes) ETV
attr interpolationmode none
attr source packetReceivedFromLower
attr title "packets received from lower layer, vector(packetBytes)"
vector 79 AODVNetwork.host[6].wlan[0].mac passedUpPk:vector(packetBytes) ETV
attr interpolationmode none
attr source packetSentToUpper
attr title "packets passed to higher layer, vector(packetBytes)"
vector 80 AODVNetwork.host[4].wlan[0].queue packetReceived:vector(packetBytes) ETV
attr interpolationmode none
attr title "received packets, vector(packetBytes)"
vector 81 AODVNetwork.host[4].wlan[0].queue queueingTime:vector ETV
attr interpolationmode none
attr title "queueing time, vector"
vector 82 AODVNetwork.host[4].wlan[0].mac rcvdPkFromHl:vector(packetBytes) ETV
attr interpolationmode none
attr source packetReceivedFromUpper
attr title "packets received from higher layer, vector(packetBytes)"
vector 83 AODVNetwork.host[4].wlan[0].mac sentDownPk:vector(packetBytes) ETV
attr interpolationmode none
attr source packetSentToLower
attr title "packets sent to lower layer, vector(packetBytes)"
vector 84 AODVNetwork.host[9].wlan[0].queue packetReceived:vector(packetBytes) ETV
attr interpolationmode none
attr title "received packets, vector(packetBytes)"
vector 85 AODVNetwork.host[9].wlan[0].queue queueingTime:vector ETV
attr interpolationmode none
attr title "queueing time, vector"
vector 86 AODVNetwork.host[9].wlan[0].mac rcvdPkFromHl:vector(packetBytes) ETV
attr interpolationmode none
attr source packetReceivedFromUpper
attr title "packets received from higher layer, vector(packetBytes)"
vector 87 AODVNetwork.host[9].wlan[0].mac sentDownPk:vector(packetBytes) ETV
attr interpolationmode none
attr source packetSentToLower
attr title "packets sent to lower layer, vector(packetBytes)"
vector 88 AODVNetwork.host[2].wlan[0].queue packetReceived:vector(packetBytes) ETV
attr interpolationmode none
attr title "received packets, vector(packetBytes)"
vector 89 AODVNetwork.host[2].wlan[0].queue queueingTime:vector ETV
attr interpolationmode none
attr title "queueing time, vector"
vector 90 AODVNetwork.host[2].wlan[0].mac rcvdPkFromHl:vector(packetBytes) ETV
attr interpolationmode none
attr source packetReceivedFromUpper
attr title "packets received from higher layer, vector(packetBytes)"
vector 91 AODVNetwork.host[2].wlan[0].mac sentDownPk:vector(packetBytes) ETV
attr interpolationmode none
attr source packetSentToLower
attr title "packets sent to lower layer, vector(packetBytes)"
vector 92 AODVNetwork.host[3].wlan[0].queue packetReceived:vector(packetBytes) ETV
attr interpolationmode none
attr title "received packets, vector(packetBytes)"
vector 93 AODVNetwork.host[3].wlan[0].queue queueingTime:vector ETV
attr interpolationmode none
attr title "queueing time, vector"
vector 94 AODVNetwork.host[3].wlan[0].mac rcvdPkFromHl:vector(packetBytes) ETV
attr interpolationmode none
attr source packetReceivedFromUpper
attr title "packets received from higher layer, vector(packetBytes)"
vector 95 AODVNetwork.host[3].wlan[0].mac sentDownPk:vector(packetBytes) ETV
attr interpolationmode none
attr source packetSentToLower
attr title "packets sent to lower layer, vector(packetBytes)"
vector 96 AODVNetwork.host[7].wlan[0].queue packetReceived:vector(packetBytes) ETV
attr interpolationmode none
attr title "received packets, vector(packetBytes)"
vector 97 AODVNetwork.host[7].wlan[0].queue queueingTime:vector ETV
attr interpolationmode none
attr title "queueing time, vector"
vector 98 AODVNetwork.host[7].wlan[0].mac rcvdPkFromHl:vector(packetBytes) ETV
attr interpolationmode none
attr source packetReceivedFromUpper
attr title "packets received from higher layer, vector(packetBytes)"
vector 99 AODVNetwork.host[7].wlan[0].mac sentDownPk:vector(packetBytes) ETV
attr interpolationmode none
attr source packetSentToLower
attr title "packets sent to lower layer, vector(packetBytes)"
vector 100 AODVNetwork.host[1].wlan[0].queue packetReceived:vector(packetBytes) ETV
attr interpolationmode none
attr title "received packets, vector(packetBytes)"
vector 101 AODVNetwork.host[1].wlan[0].queue queueingTime:vector ETV
attr interpolationmode none
attr title "queueing time, vector"
vector 102 AODVNetwork.host[1].wlan[0].mac rcvdPkFromHl:vector(packetBytes) ETV
attr interpolationmode none
attr source packetReceivedFromUpper
attr title "packets received from higher layer, vector(packetBytes)"
vector 103 AODVNetwork.host[1].wlan[0].mac sentDownPk:vector(packetBytes) ETV
attr interpolationmode none
attr source packetSentToLower
attr title "packets sent to lower layer, vector(packetBytes)"
vector 104 AODVNetwork.host[0].wlan[0].mac rcvdPkFromLl:vector(packetBytes) ETV
attr interpolationmode none
attr source packetReceivedFromLower
attr title "packets received from lower layer, vector(packetBytes)"
vector 105 AODVNetwork.host[0].wlan[0].mac passedUpPk:vector(packetBytes) ETV
attr interpolationmode none
attr source packetSentToUpper
attr title "packets passed to higher layer, vector(packetBytes)"
vector 106 AODVNetwork.host[0].ipv4.arp arpRequestSent:vector(packetBytes) ETV
attr source arpRequestSent
attr title "ARP request sent, vector(packetBytes)"
vector 107 AODVNetwork.host[0].wlan[0].queue packetReceived:vector(packetBytes) ETV
attr interpolationmode none
attr title "received packets, vector(packetBytes)"
vector 108 AODVNetwork.host[0].wlan[0].queue queueingTime:vector ETV
attr interpolationmode none
attr title "queueing time, vector"
vector 109 AODVNetwork.host[0].wlan[0].mac rcvdPkFromHl:vector(packetBytes) ETV
attr interpolationmode none
attr source packetReceivedFromUpper
attr title "packets received from higher layer, vector(packetBytes)"
vector 110 AODVNetwork.host[0].wlan[0].mac sentDownPk:vector(packetBytes) ETV
attr interpolationmode none
attr source packetSentToLower
attr title "packets sent to lower layer, vector(packetBytes)"
vector 111 AODVNetwork.host[1].wlan[0].mac rcvdPkFromLl:vector(packetBytes) ETV
attr interpolationmode none
attr source packetReceivedFromLower
attr title "packets received from lower layer, vector(packetBytes)"
vector 112 AODVNetwork.host[1].wlan[0].mac passedUpPk:vector(packetBytes) ETV
attr interpolationmode none
attr source packetSentToUpper
attr title "packets passed to higher layer, vector(packetBytes)"
vector 113 AODVNetwork.host[1].ipv4.arp arpReplySent:vector(packetBytes) ETV
attr source arpReplySent
attr title "ARP replies sent, vector(packetBytes)"
vector 114 AODVNetwork.host[5].wlan[0].queue packetReceived:vector(packetBytes) ETV
attr interpolationmode none
attr title "received packets, vector(packetBytes)"
vector 115 AODVNetwork.host[5].wlan[0].queue queueingTime:vector ETV
attr interpolationmode none
attr title "queueing time, vector"
vector 116 AODVNetwork.host[5].wlan[0].mac rcvdPkFromHl:vector(packetBytes) ETV
attr interpolationmode none
attr source packetReceivedFromUpper
attr title "packets received from higher layer, vector(packetBytes)"
vector 117 AODVNetwork.host[5].wlan[0].mac sentDownPk:vector(packetBytes) ETV
attr interpolationmode none
attr source packetSentToLower
attr title "packets sent to lower layer, vector(packetBytes)"
vector 118 AODVNetwork.host[9].wlan[0].mac rcvdPkFromLl:vector(packetBytes) ETV
attr interpolationmode none
attr source packetReceivedFromLower
attr title "packets received from lower layer, vector(packetBytes)"
vector 119 AODVNetwork.host[9].wlan[0].mac passedUpPk:vector(packetBytes) ETV
attr interpolationmode none
attr source packetSentToUpper
attr title "packets passed to higher layer, vector(packetBytes)"
vector 120 AODVNetwork.host[5].wlan[0].mac rcvdPkFromLl:vector(packetBytes) ETV
attr interpolationmode none
attr source packetReceivedFromLower
attr title "packets received from lower layer, vector(packetBytes)"
vector 121 AODVNetwork.host[5].wlan[0].mac passedUpPk:vector(packetBytes) ETV
attr interpolationmode none
attr source packetSentToUpper
attr title "packets passed to higher layer, vector(packetBytes)"
vector 122 AODVNetwork.host[1].ipv4.arp arpRequestSent:vector(packetBytes) ETV
attr source arpRequestSent
attr title "ARP request sent, vector(packetBytes)"
vector 123 AODVNetwork.host[0].ipv4.arp arpReplySent:vector(packetBytes) ETV
attr source arpReplySent
attr title "ARP replies sent, vector(packetBytes)"
0	0	0	0
1	0	0	0
1	0	0	0
1	0	0	4
2	0	0	0
3	0	0	0
3	0	0	0
3	0	0	4
4	0	0	0
5	0	0	0
5	0	0	0
5	0	0	4
6	0	0	0
7	0	0	0
7	0	0	0
7	0	0	4
8	0	0	0
8	122056	284.803256547222	1
8	122057	284.803283163102	0
8	183175	427.864644503731	1
8	183176	427.864650541208	0
9	0	0	0
9	0	0	0
9	0	0	4
10	0	0	0
10	73368	169.943531339127	1
10	73369	169.943562361817	0
11	0	0	0
11	0	0	0
11	0	0	4
12	0	0	0
12	1499	1.944876541978	1
12	1500	1.944882645343	0
12	57289	133.864078523575	1
12	57290	133.864100943687	0
12	123572	288.403906711903	1
12	123573	288.403937164816	0
12	126490	295.304609900598	1
12	126491	295.304618308809	0
12	140242	327.444114217034	1
12	140243	327.444129902591	0
12	188624	441.502684435239	1
12	188625	441.50270432098	0
13	0	0	0
13	0	0	0
13	0	0	4
14	0	0	0
14	4851	11.006463374861	1
14	4852	11.006482809899	0
14	20376	46.903907398003	1
14	20377	46.903927525574	0
14	27621	64.303669739467	1
14	27622	64.303675602827	0
14	41880	96.443590595199	1
14	41881	96.443593300857	0
14	47534	109.904158270798	1
14	47535	109.904176002477	0
14	55192	127.943837337814	1
14	55193	127.943837563163	0
14	111232	259.864244628156	1
14	111233	259.864268454938	0
14	189828	442.942463199019	1
14	189829	442.942476372657	0
15	0	0	0
15	0	0	0
15	0	0	4
16	0	0	0
16	3539	7.86211927522	1
16	3540	7.862137579177	0
16	26960	63.503114470148	1
16	26961	63.503115431677	0
16	126952	295.944813643211	1
16	126953	295.94483276389	0
16	195670	456.405375764435	1
16	195671	456.405401846603	0
17	0	0	0
17	0	0	0
17	0	0	4
18	0	0	0
18	133451	312.362604056954	1
18	133452	312.362610134634	0
18	193227	452.000821818163	1
18	193228	452.000841696086	0
19	0	0	0
19	0	0	0
19	0	0	4
20	0	0	1
20	200	0.503229503931	3
20	204	0.503263103931	1
20	224	0.503287170643	3
20	230	0.503311170643	1
20	249	0.503343237355	3
20	255	0.503767237355	1
20	840	1.000000033356	3
20	844	1.000424033356	1
20	1256	1.500000033356	3
20	1260	1.500424033356	1
20	1720	2.000000033356	3
20	1724	2.000424033356	1
20	1840	2.500000033356	3
20	1844	2.500424033356	1
20	1981	3.000000033356	3
20	1985	3.000424033356	1
20	2102	3.500000033356	3
20	2106	3.500424033356	1
20	2234	4.000000033356	3
20	2238	4.000424033356	1
20	2355	4.500000033356	3
20	2359	4.500424033356	1
20	2798	5.000000033356	3
20	2802	5.000424033356	1
20	2917	5.500000033356	3
20	2921	5.500424033356	1
20	3055	6.000000033356	3
20	3059	6.000424033356	1
20	3176	6.500000033356	3
20	3180	6.500424033356	1
20	3306	7.000000033356	3
20	3311	7.000424033356	1
20	3429	7.500000033356	3
20	3434	7.500424033356	1
20	3832	8.000000033356	3
20	3837	8.000424033356	1
20	3954	8.500000033356	3
20	3959	8.500424033356	1
20	4095	9.000000033356	3
20	4100	9.000424033356	1
20	4215	9.500000033356	3
20	4220	9.500424033356	1
20	4346	10.000000033356	3
20	4351	10.000424033356	1
20	4468	10.500000033356	3
20	4473	10.500424033356	1
20	4607	11.000000033356	3
20	4632	11.000424033356	1
20	5296	11.500000033356	3
20	5301	11.500424033356	1
20	5692	12.000000033356	3
20	5697	12.000424033356	1
20	6128	12.500000033356	3
20	6133	12.500424033356	1
20	6259	13.000000033356	3
20	6264	13.000424033356	1
20	6389	13.500000033356	3
20	6394	13.500424033356	1
20	6522	14.000000033356	3
20	6527	14.000424033356	1
20	6642	14.500000033356	3
20	6647	14.500424033356	1
20	6773	15.000000033356	3
20	6778	15.000424033356	1
20	7162	15.500000033356	3
20	7167	15.500424033356	1
20	7293	16.000000033356	3
20	7298	16.000424033356	1
20	7421	16.500000033356	3
20	7426	16.500424033356	1
20	7552	17.000000033356	3
20	7557	17.000424033356	1
20	7674	17.500000033356	3
20	7679	17.500424033356	1
20	7810	18.000000033356	3
20	7815	18.000424033356	1
20	8181	18.500000033356	3
20	8186	18.500424033356	1
20	8312	19.000000033356	3
20	8317	19.000424033356	1
20	8442	19.500000033356	3
20	8447	19.500424033356	1
20	8575	20.000000033356	3
20	8580	20.000424033356	1
20	8697	20.500000033356	3
20	8702	20.500424033356	1
20	8831	21.000000033356	3
20	8836	21.000424033356	1
20	8961	21.500000033356	3
20	8982	21.500424033356	1
20	9693	22.000000033356	3
20	9698	22.000424033356	1
20	10089	22.500000033356	3
20	10094	22.500424033356	1
20	10542	23.000000033356	3
20	10547	23.000424033356	1
20	10662	23.500000033356	3
20	10667	23.500424033356	1
20	10801	24.000000033356	3
20	10806	24.000424033356	1
20	10921	24.500000033356	3
20	10926	24.500424033356	1
20	11052	25.000000033356	3
20	11057	25.000424033356	1
20	11172	25.500000033356	3
20	11177	25.500424033356	1
20	11617	26.000000033356	3
20	11622	26.000424033356	1
20	11737	26.500000033356	3
20	11742	26.500424033356	1
20	11877	27.000000033356	3
20	11882	27.000424033356	1
20	11998	27.500000033356	3
20	12003	27.500424033356	1
20	12129	28.000000033356	3
20	12134	28.000424033356	1
20	12252	28.500000033356	3
20	12257	28.500424033356	1
20	12705	29.000000033356	3
20	12710	29.000424033356	1
20	12827	29.500000033356	3
20	12832	29.500424033356	1
20	12968	30.000000033356	3
20	12973	30.000424033356	1
20	13090	30.500000033356	3
20	13095	30.500424033356	1
20	13223	31.000000033356	3
20	13228	31.000424033356	1
20	13346	31.500000033356	3
20	13351	31.500424033356	1
20	13488	32.000000033356	3
20	13493	32.000424033356	1
20	14197	32.500000033356	3
20	14202	32.500424033356	1
20	14586	33.000000033356	3
20	14591	33.000424033356	1
20	14999	33.500000033356	3
20	15004	33.500424033356	1
20	15132	34.000000033356	3
20	15137	34.000424033356	1
20	15261	34.500000033356	3
20	15266	34.500424033356	1
20	15392	35.000000033356	3
20	15397	35.000424033356	1
20	15512	35.500000033356	3
20	15517	35.500424033356	1
20	15643	36.000000033356	3
20	15648	36.000424033356	1
20	16061	36.500000033356	3
20	16066	36.500424033356	1
20	16194	37.000000033356	3
20	16199	37.000424033356	1
20	16324	37.500000033356	3
20	16329	37.500424033356	1
20	16459	38.000000033356	3
20	16464	38.000424033356	1
20	16581	38.500000033356	3
20	16586	38.500424033356	1
20	16715	39.000000033356	3
20	16720	39.000424033356	1
20	17107	39.500000033356	3
20	17112	39.500424033356	1
20	17238	40.000000033356	3
20	17243	40.000424033356	1
20	17369	40.500000033356	3
20	17374	40.500424033356	1
20	17502	41.000000033356	3
20	17507	41.000424033356	1
20	17624	41.500000033356	3
20	17629	41.500424033356	1
20	17757	42.000000033356	3
20	17762	42.000424033356	1
20	17885	42.500000033356	3
20	17899	42.500424033356	1
20	18636	43.000000033356	3
20	18641	43.000424033356	1
20	19035	43.500000033356	3
20	19040	43.500424033356	1
20	19505	44.000000033356	3
20	19510	44.000424033356	1
20	19628	44.500000033356	3
20	19633	44.500424033356	1
20	19769	45.000000033356	3
20	19774	45.000424033356	1
20	19889	45.500000033356	3
20	19894	45.500424033356	1
20	20020	46.000000033356	3
20	20025	46.000424033356	1
20	20140	46.500000033356	3
20	20145	46.500424033356	1
20	20602	47.000000033356	3
20	20607	47.000424033356	1
20	20722	47.500000033356	3
20	20727	47.500424033356	1
20	20860	48.000000033356	3
20	20865	48.000424033356	1
20	20982	48.500000033356	3
20	20987	48.500424033356	1
20	21116	49.000000033356	3
20	21121	49.000424033356	1
20	21236	49.500000033356	3
20	21241	49.500424033356	1
20	21671	50.000000033356	3
20	21676	50.000424033356	1
20	21793	50.500000033356	3
20	21798	50.500424033356	1
20	21934	51.000000033356	3
20	21939	51.000424033356	1
20	22056	51.500000033356	3
20	22061	51.500424033356	1
20	22189	52.000000033356	3
20	22194	52.000424033356	1
20	22310	52.500000033356	3
20	22315	52.500424033356	1
20	22450	53.000000033356	3
20	22466	53.000424033356	1
20	23133	53.500000033356	3
20	23138	53.500424033356	1
20	23535	54.000000033356	3
20	23540	54.000424033356	1
20	23983	54.500000033356	3
20	23988	54.500424033356	1
20	24114	55.000000033356	3
20	24119	55.000424033356	1
20	24244	55.500000033356	3
20	24249	55.500424033356	1
20	24377	56.000000033356	3
20	24382	56.000424033356	1
20	24499	56.500000033356	3
20	24504	56.500424033356	1
20	24632	57.000000033356	3
20	24637	57.000424033356	1
20	25010	57.500000033356	3
20	25015	57.500424033356	1
20	25143	58.000000033356	3
20	25148	58.000424033356	1
20	25271	58.500000033356	3
20	25276	58.500424033356	1
20	25404	59.000000033356	3
20	25409	59.000424033356	1
20	25525	59.500000033356	3
20	25530	59.500424033356	1
20	25660	60.000000033356	3
20	25665	60.000424033356	1
20	26054	60.500000033356	3
20	26059	60.500424033356	1
20	26185	61.000000033356	3
20	26190	61.000424033356	1
20	26314	61.500000033356	3
20	26319	61.500424033356	1
20	26447	62.000000033356	3
20	26452	62.000424033356	1
20	26569	62.500000033356	3
20	26574	62.500424033356	1
20	26702	63.000000033356	3
20	26707	63.000424033356	1
20	26832	63.500000033356	3
20	26837	63.500424033356	1
20	27464	64.000000033356	3
20	27469	64.000424033356	1
20	27906	64.500000033356	3
20	27911	64.500424033356	1
20	28370	65.000000033356	3
20	28375	65.000424033356	1
20	28490	65.500000033356	3
20	28495	65.500424033356	1
20	28630	66.000000033356	3
20	28635	66.000424033356	1
20	28752	66.500000033356	3
20	28757	66.500424033356	1
20	28885	67.000000033356	3
20	28890	67.000424033356	1
20	29007	67.500000033356	3
20	29012	67.500424033356	1
20	29442	68.000000033356	3
20	29447	68.000424033356	1
20	29562	68.500000033356	3
20	29567	68.500424033356	1
20	29702	69.000000033356	3
20	29707	69.000424033356	1
20	29824	69.500000033356	3
20	29829	69.500424033356	1
20	29957	70.000000033356	3
20	29962	70.000424033356	1
20	30081	70.500000033356	3
20	30086	70.500424033356	1
20	30568	71.000000033356	3
20	30573	71.000424033356	1
20	30690	71.500000033356	3
20	30695	71.500424033356	1
20	30832	72.000000033356	3
20	30837	72.000424033356	1
20	30952	72.500000033356	3
20	30957	72.500424033356	1
20	31083	73.000000033356	3
20	31088	73.000424033356	1
20	31205	73.500000033356	3
20	31210	73.500424033356	1
20	31346	74.000000033356	3
20	31351	74.000424033356	1
20	32105	74.500000033356	3
20	32110	74.500424033356	1
20	32555	75.000000033356	3
20	32560	75.000424033356	1
20	33020	75.500000033356	3
20	33025	75.500424033356	1
20	33154	76.000000033356	3
20	33159	76.000424033356	1
20	33282	76.500000033356	3
20	33287	76.500424033356	1
20	33413	77.000000033356	3
20	33418	77.000424033356	1
20	33533	77.500000033356	3
20	33538	77.500424033356	1
20	33664	78.000000033356	3
20	33669	78.000424033356	1
20	34029	78.500000033356	3
20	34034	78.500424033356	1
20	34162	79.000000033356	3
20	34167	79.000424033356	1
20	34289	79.500000033356	3
20	34294	79.500424033356	1
20	34420	80.000000033356	3
20	34425	80.000424033356	1
20	34543	80.500000033356	3
20	34548	80.500424033356	1
20	34680	81.000000033356	3
20	34685	81.000424033356	1
20	35141	81.500000033356	3
20	35146	81.500424033356	1
20	35274	82.000000033356	3
20	35279	82.000424033356	1
20	35405	82.500000033356	3
20	35410	82.500424033356	1
20	35538	83.000000033356	3
20	35543	83.000424033356	1
20	35658	83.500000033356	3
20	35663	83.500424033356	1
20	35789	84.000000033356	3
20	35794	84.000424033356	1
20	35917	84.500000033356	3
20	35939	84.500424033356	1
20	36648	85.000000033356	3
20	36653	85.000424033356	1
20	37136	85.500000033356	3
20	37141	85.500424033356	1
20	37615	86.000000033356	3
20	37620	86.000424033356	1
20	37737	86.500000033356	3
20	37742	86.500424033356	1
20	37879	87.000000033356	3
20	37884	87.000424033356	1
20	38001	87.500000033356	3
20	38006	87.500424033356	1
20	38134	88.000000033356	3
20	38139	88.000424033356	1
20	38256	88.500000033356	3
20	38261	88.500424033356	1
20	38728	89.000000033356	3
20	38733	89.000424033356	1
20	38850	89.500000033356	3
20	38855	89.500424033356	1
20	38992	90.000000033356	3
20	38997	90.000424033356	1
20	39114	90.500000033356	3
20	39119	90.500424033356	1
20	39248	91.000000033356	3
20	39253	91.000424033356	1
20	39368	91.500000033356	3
20	39373	91.500424033356	1
20	39791	92.000000033356	3
20	39796	92.000424033356	1
20	39913	92.500000033356	3
20	39918	92.500424033356	1
20	40053	93.000000033356	3
20	40058	93.000424033356	1
20	40173	93.500000033356	3
20	40178	93.500424033356	1
20	40304	94.000000033356	3
20	40309	94.000424033356	1
20	40425	94.500000033356	3
20	40430	94.500424033356	1
20	40565	95.000000033356	3
20	40570	95.000424033356	1
20	41216	95.500000033356	3
20	41221	95.500424033356	1
20	41701	96.000000033356	3
20	41706	96.000424033356	1
20	42152	96.500000033356	3
20	42157	96.500424033356	1
20	42284	97.000000033356	3
20	42289	97.000424033356	1
20	42414	97.500000033356	3
20	42419	97.500424033356	1
20	42547	98.000000033356	3
20	42552	98.000424033356	1
20	42669	98.500000033356	3
20	42674	98.500424033356	1
20	42802	99.000000033356	3
20	42807	99.000424033356	1
20	43235	99.500000033356	3
20	43240	99.500424033356	1
20	43368	100.000000033356	3
20	43373	100.000424033356	1
20	43497	100.500000033356	3
20	43502	100.500424033356	1
20	43630	101.000000033356	3
20	43635	101.000424033356	1
20	43752	101.500000033356	3
20	43757	101.500424033356	1
20	43887	102.000000033356	3
20	43892	102.000424033356	1
20	44285	102.500000033356	3
20	44290	102.500424033356	1
20	44418	103.000000033356	3
20	44423	103.000424033356	1
20	44548	103.500000033356	3
20	44553	103.500424033356	1
20	44681	104.000000033356	3
20	44686	104.000424033356	1
20	44803	104.500000033356	3
20	44808	104.500424033356	1
20	44939	105.000000033356	3
20	44944	105.000424033356	1
20	45069	105.500000033356	3
20	45074	105.500424033356	1
20	45838	106.000000033356	3
20	45843	106.000424033356	1
20	46223	106.500000033356	3
20	46228	106.500424033356	1
20	46616	107.000000033356	3
20	46621	107.000424033356	1
20	46737	107.500000033356	3
20	46742	107.500424033356	1
20	46875	108.000000033356	3
20	46880	108.000424033356	1
20	46995	108.500000033356	3
20	47000	108.500424033356	1
20	47126	109.000000033356	3
20	47131	109.000424033356	1
20	47248	109.500000033356	3
20	47253	109.500424033356	1
20	47701	110.000000033356	3
20	47706	110.000424033356	1
20	47823	110.500000033356	3
20	47828	110.500424033356	1
20	47963	111.000000033356	3
20	47968	111.000424033356	1
20	48087	111.500000033356	3
20	48092	111.500424033356	1
20	48220	112.000000033356	3
20	48225	112.000424033356	1
20	48341	112.500000033356	3
20	48346	112.500424033356	1
20	48696	113.000000033356	3
20	48701	113.000424033356	1
20	48818	113.500000033356	3
20	48823	113.500424033356	1
20	48957	114.000000033356	3
20	48962	114.000424033356	1
20	49077	114.500000033356	3
20	49082	114.500424033356	1
20	49208	115.000000033356	3
20	49213	115.000424033356	1
20	49332	115.500000033356	3
20	49337	115.500424033356	1
20	49472	116.000000033356	3
20	49494	116.000424033356	1
20	50138	116.500000033356	3
20	50143	116.500424033356	1
20	50541	117.000000033356	3
20	50546	117.000424033356	1
20	50973	117.500000033356	3
20	50978	117.500424033356	1
20	51104	118.000000033356	3
20	51109	118.000424033356	1
20	51234	118.500000033356	3
20	51239	118.500424033356	1
20	51367	119.000000033356	3
20	51372	119.000424033356	1
20	51487	119.500000033356	3
20	51492	119.500424033356	1
20	51618	120.000000033356	3
20	51623	120.000424033356	1
20	52063	120.500000033356	3
20	52068	120.500424033356	1
20	52196	121.000000033356	3
20	52200	121.000024033356	1
20	52218	121.000048100068	3
20	52225	121.000472100068	1
20	52352	121.500000033356	3
20	52357	121.500424033356	1
20	52485	122.000000033356	3
20	52489	122.000424033356	1
20	52609	122.500000033356	3
20	52613	122.500424033356	1
20	52741	123.000000033356	3
20	52746	123.000424033356	1
20	53123	123.500000033356	3
20	53128	123.500424033356	1
20	53256	124.000000033356	3
20	53261	124.000424033356	1
20	53385	124.500000033356	3
20	53390	124.500424033356	1
20	53516	125.000000033356	3
20	53521	125.000424033356	1
20	53638	125.500000033356	3
20	53643	125.500424033356	1
20	53774	126.000000033356	3
20	53779	126.000424033356	1
20	53904	126.500000033356	3
20	53926	126.500424033356	1
20	54591	127.000000033356	3
20	54596	127.000424033356	1
20	54993	127.500000033356	3
20	54998	127.500424033356	1
20	55432	128.000000033356	3
20	55437	128.000424033356	1
20	55552	128.500000033356	3
20	55557	128.500424033356	1
20	55692	129.000000033356	3
20	55697	129.000424033356	1
20	55814	129.500000033356	3
20	55819	129.500424033356	1
20	55947	130.000000033356	3
20	55952	130.000424033356	1
20	56069	130.500000033356	3
20	56074	130.500424033356	1
20	56461	131.000000033356	3
20	56466	131.000424033356	1
20	56583	131.500000033356	3
20	56588	131.500424033356	1
20	56724	132.000000033356	3
20	56729	132.000424033356	1
20	56846	132.500000033356	3
20	56851	132.500424033356	1
20	56977	133.000000033356	3
20	56982	133.000424033356	1
20	57101	133.500000033356	3
20	57106	133.500424033356	1
20	57545	134.000000033356	3
20	57550	134.000424033356	1
20	57665	134.500000033356	3
20	57670	134.500424033356	1
20	57804	135.000000033356	3
20	57809	135.000424033356	1
20	57924	135.500000033356	3
20	57929	135.500424033356	1
20	58055	136.000000033356	3
20	58060	136.000424033356	1
20	58178	136.500000033356	3
20	58183	136.500424033356	1
20	58319	137.000000033356	3
20	58344	137.000424033356	1
20	59042	137.500000033356	3
20	59047	137.500424033356	1
20	59464	138.000000033356	3
20	59469	138.000424033356	1
20	59889	138.500000033356	3
20	59894	138.500424033356	1
20	60023	139.000000033356	3
20	60028	139.000424033356	1
20	60153	139.500000033356	3
20	60158	139.500424033356	1
20	60286	140.000000033356	3
20	60291	140.000424033356	1
20	60406	140.500000033356	3
20	60411	140.500424033356	1
20	60537	141.000000033356	3
20	60542	141.000424033356	1
20	60998	141.500000033356	3
20	61003	141.500424033356	1
20	61131	142.000000033356	3
20	61136	142.000424033356	1
20	61259	142.500000033356	3
20	61264	142.500424033356	1
20	61390	143.000000033356	3
20	61395	143.000424033356	1
20	61512	143.500000033356	3
20	61517	143.500424033356	1
20	61646	144.000000033356	3
20	61651	144.000424033356	1
20	62124	144.500000033356	3
20	62129	144.500424033356	1
20	62257	145.000000033356	3
20	62262	145.000424033356	1
20	62388	145.500000033356	3
20	62393	145.500424033356	1
20	62521	146.000000033356	3
20	62526	146.000424033356	1
20	62643	146.500000033356	3
20	62648	146.500424033356	1
20	62776	147.000000033356	3
20	62781	147.000424033356	1
20	62904	147.500000033356	3
20	62909	147.500424033356	1
20	63599	148.000000033356	3
20	63604	148.000424033356	1
20	64068	148.500000033356	3
20	64073	148.500424033356	1
20	64511	149.000000033356	3
20	64516	149.000424033356	1
20	64631	149.500000033356	3
20	64636	149.500424033356	1
20	64771	150.000000033356	3
20	64776	150.000424033356	1
20	64893	150.500000033356	3
20	64898	150.500424033356	1
20	65026	151.000000033356	3
20	65031	151.000424033356	1
20	65146	151.500000033356	3
20	65151	151.500424033356	1
20	65609	152.000000033356	3
20	65614	152.000424033356	1
20	65731	152.500000033356	3
20	65736	152.500424033356	1
20	65873	153.000000033356	3
20	65878	153.000424033356	1
20	65995	153.500000033356	3
20	66000	153.500424033356	1
20	66128	154.000000033356	3
20	66133	154.000424033356	1
20	66249	154.500000033356	3
20	66254	154.500424033356	1
20	66668	155.000000033356	3
20	66673	155.000424033356	1
20	66788	155.500000033356	3
20	66793	155.500424033356	1
20	66928	156.000000033356	3
20	66933	156.000424033356	1
20	67050	156.500000033356	3
20	67055	156.500424033356	1
20	67183	157.000000033356	3
20	67188	157.000424033356	1
20	67308	157.500000033356	3
20	67313	157.500424033356	1
20	67449	158.000000033356	3
20	67488	158.000424033356	1
20	68094	158.500000033356	3
20	68099	158.500424033356	1
20	68559	159.000000033356	3
20	68564	159.000424033356	1
20	69025	159.500000033356	3
20	69030	159.500424033356	1
20	69158	160.000000033356	3
20	69163	160.000424033356	1
20	69289	160.500000033356	3
20	69294	160.500424033356	1
20	69422	161.000000033356	3
20	69427	161.000424033356	1
20	69544	161.500000033356	3
20	69549	161.500424033356	1
20	69677	162.000000033356	3
20	69682	162.000424033356	1
20	70135	162.500000033356	3
20	70140	162.500424033356	1
20	70268	163.000000033356	3
20	70273	163.000424033356	1
20	70396	163.500000033356	3
20	70401	163.500424033356	1
20	70527	164.000000033356	3
20	70532	164.000424033356	1
20	70649	164.500000033356	3
20	70654	164.500424033356	1
20	70783	165.000000033356	3
20	70788	165.000424033356	1
20	71221	165.500000033356	3
20	71226	165.500424033356	1
20	71352	166.000000033356	3
20	71357	166.000424033356	1
20	71480	166.500000033356	3
20	71485	166.500424033356	1
20	71611	167.000000033356	3
20	71616	167.000424033356	1
20	71733	167.500000033356	3
20	71738	167.500424033356	1
20	71867	168.000000033356	3
20	71872	168.000424033356	1
20	71998	168.500000033356	3
20	72027	168.500424033356	1
20	72734	169.000000033356	3
20	72739	169.000424033356	1
20	73232	169.500000033356	3
20	73237	169.500424033356	1
20	73715	170.000000033356	3
20	73720	170.000424033356	1
20	73837	170.500000033356	3
20	73842	170.500424033356	1
20	73980	171.000000033356	3
20	73985	171.000424033356	1
20	74102	171.500000033356	3
20	74107	171.500424033356	1
20	74235	172.000000033356	3
20	74240	172.000424033356	1
20	74355	172.500000033356	3
20	74360	172.500424033356	1
20	74781	173.000000033356	3
20	74786	173.000424033356	1
20	74903	173.500000033356	3
20	74908	173.500424033356	1
20	75045	174.000000033356	3
20	75050	174.000424033356	1
20	75167	174.500000033356	3
20	75172	174.500424033356	1
20	75300	175.000000033356	3
20	75305	175.000424033356	1
20	75422	175.500000033356	3
20	75427	175.500424033356	1
20	75848	176.000000033356	3
20	75853	176.000424033356	1
20	75968	176.500000033356	3
20	75973	176.500424033356	1
20	76108	177.000000033356	3
20	76113	177.000424033356	1
20	76228	177.500000033356	3
20	76233	177.500424033356	1
20	76359	178.000000033356	3
20	76364	178.000424033356	1
20	76479	178.500000033356	3
20	76484	178.500424033356	1
20	76618	179.000000033356	3
20	76623	179.000424033356	1
20	77265	179.500000033356	3
20	77270	179.500424033356	1
20	77698	180.000000033356	3
20	77703	180.000424033356	1
20	78080	180.500000033356	3
20	78085	180.500424033356	1
20	78211	181.000000033356	3
20	78216	181.000424033356	1
20	78340	181.500000033356	3
20	78345	181.500424033356	1
20	78471	182.000000033356	3
20	78476	182.000424033356	1
20	78593	182.500000033356	3
20	78598	182.500424033356	1
20	78726	183.000000033356	3
20	78731	183.000424033356	1
20	79194	183.500000033356	3
20	79199	183.500424033356	1
20	79325	184.000000033356	3
20	79330	184.000424033356	1
20	79455	184.500000033356	3
20	79460	184.500424033356	1
20	79588	185.000000033356	3
20	79593	185.000424033356	1
20	79709	185.500000033356	3
20	79714	185.500424033356	1
20	79840	186.000000033356	3
20	79845	186.000424033356	1
20	80294	186.500000033356	3
20	80299	186.500424033356	1
20	80425	187.000000033356	3
20	80430	187.000424033356	1
20	80554	187.500000033356	3
20	80559	187.500424033356	1
20	80685	188.000000033356	3
20	80690	188.000424033356	1
20	80807	188.500000033356	3
20	80812	188.500424033356	1
20	80940	189.000000033356	3
20	80945	189.000424033356	1
20	81068	189.500000033356	3
20	81085	189.500424033356	1
20	81762	190.000000033356	3
20	81767	190.000424033356	1
20	82204	190.500000033356	3
20	82209	190.500424033356	1
20	82657	191.000000033356	3
20	82662	191.000424033356	1
20	82777	191.500000033356	3
20	82782	191.500424033356	1
20	82916	192.000000033356	3
20	82921	192.000424033356	1
20	83036	192.500000033356	3
20	83041	192.500424033356	1
20	83167	193.000000033356	3
20	83172	193.000424033356	1
20	83289	193.500000033356	3
20	83294	193.500424033356	1
20	83682	194.000000033356	3
20	83687	194.000424033356	1
20	83804	194.500000033356	3
20	83809	194.500424033356	1
20	83946	195.000000033356	3
20	83951	195.000424033356	1
20	84066	195.500000033356	3
20	84071	195.500424033356	1
20	84197	196.000000033356	3
20	84202	196.000424033356	1
20	84320	196.500000033356	3
20	84325	196.500424033356	1
20	84791	197.000000033356	3
20	84796	197.000424033356	1
20	84913	197.500000033356	3
20	84918	197.500424033356	1
20	85055	198.000000033356	3
20	85060	198.000424033356	1
20	85177	198.500000033356	3
20	85182	198.500424033356	1
20	85310	199.000000033356	3
20	85315	199.000424033356	1
20	85433	199.500000033356	3
20	85438	199.500424033356	1
20	85574	200.000000033356	3
20	85607	200.000424033356	1
20	86276	200.500000033356	3
20	86281	200.500424033356	1
20	86739	201.000000033356	3
20	86744	201.000424033356	1
20	87150	201.500000033356	3
20	87155	201.500424033356	1
20	87281	202.000000033356	3
20	87286	202.000424033356	1
20	87408	202.500000033356	3
20	87413	202.500424033356	1
20	87539	203.000000033356	3
20	87544	203.000424033356	1
20	87659	203.500000033356	3
20	87664	203.500424033356	1
20	87790	204.000000033356	3
20	87795	204.000424033356	1
20	88165	204.500000033356	3
20	88170	204.500424033356	1
20	88296	205.000000033356	3
20	88301	205.000424033356	1
20	88423	205.500000033356	3
20	88428	205.500424033356	1
20	88554	206.000000033356	3
20	88559	206.000424033356	1
20	88678	206.500000033356	3
20	88683	206.500424033356	1
20	88813	207.000000033356	3
20	88818	207.000424033356	1
20	89207	207.500000033356	3
20	89212	207.500424033356	1
20	89338	208.000000033356	3
20	89343	208.000424033356	1
20	89466	208.500000033356	3
20	89471	208.500424033356	1
20	89599	209.000000033356	3
20	89604	209.000424033356	1
20	89721	209.500000033356	3
20	89726	209.500424033356	1
20	89855	210.000000033356	3
20	89860	210.000424033356	1
20	89983	210.500000033356	3
20	89988	210.500424033356	1
20	90672	211.000000033356	3
20	90677	211.000424033356	1
20	91124	211.500000033356	3
20	91129	211.500424033356	1
20	91586	212.000000033356	3
20	91591	212.000424033356	1
20	91708	212.500000033356	3
20	91713	212.500424033356	1
20	91850	213.000000033356	3
20	91855	213.000424033356	1
20	91972	213.500000033356	3
20	91977	213.500424033356	1
20	92105	214.000000033356	3
20	92110	214.000424033356	1
20	92227	214.500000033356	3
20	92232	214.500424033356	1
20	92640	215.000000033356	3
20	92645	215.000424033356	1
20	92760	215.500000033356	3
20	92765	215.500424033356	1
20	92900	216.000000033356	3
20	92905	216.000424033356	1
20	93023	216.500000033356	3
20	93028	216.500424033356	1
20	93156	217.000000033356	3
20	93161	217.000424033356	1
20	93280	217.500000033356	3
20	93285	217.500424033356	1
20	93760	218.000000033356	3
20	93765	218.000424033356	1
20	93882	218.500000033356	3
20	93887	218.500424033356	1
20	94023	219.000000033356	3
20	94028	219.000424033356	1
20	94143	219.500000033356	3
20	94148	219.500424033356	1
20	94274	220.000000033356	3
20	94279	220.000424033356	1
20	94397	220.500000033356	3
20	94402	220.500424033356	1
20	94538	221.000000033356	3
20	94554	221.000424033356	1
20	95147	221.500000033356	3
20	95152	221.500424033356	1
20	95617	222.000000033356	3
20	95622	222.000424033356	1
20	96055	222.500000033356	3
20	96060	222.500424033356	1
20	96188	223.000000033356	3
20	96193	223.000424033356	1
20	96316	223.500000033356	3
20	96321	223.500424033356	1
20	96447	224.000000033356	3
20	96452	224.000424033356	1
20	96567	224.500000033356	3
20	96572	224.500424033356	1
20	96698	225.000000033356	3
20	96703	225.000424033356	1
20	97159	225.500000033356	3
20	97164	225.500424033356	1
20	97292	226.000000033356	3
20	97297	226.000424033356	1
20	97423	226.500000033356	3
20	97428	226.500424033356	1
20	97556	227.000000033356	3
20	97561	227.000424033356	1
20	97678	227.500000033356	3
20	97683	227.500424033356	1
20	97812	228.000000033356	3
20	97817	228.000424033356	1
20	98160	228.500000033356	3
20	98165	228.500424033356	1
20	98293	229.000000033356	3
20	98298	229.000424033356	1
20	98419	229.500000033356	3
20	98424	229.500424033356	1
20	98550	230.000000033356	3
20	98555	230.000424033356	1
20	98670	230.500000033356	3
20	98675	230.500424033356	1
20	98805	231.000000033356	3
20	98810	231.000424033356	1
20	98938	231.500000033356	3
20	98943	231.500424033356	1
20	99686	232.000000033356	3
20	99691	232.000424033356	1
20	100034	232.500000033356	3
20	100039	232.500424033356	1
20	100415	233.000000033356	3
20	100420	233.000424033356	1
20	100537	233.500000033356	3
20	100542	233.500424033356	1
20	100678	234.000000033356	3
20	100683	234.000424033356	1
20	100798	234.500000033356	3
20	100803	234.500424033356	1
20	100929	235.000000033356	3
20	100934	235.000424033356	1
20	101051	235.500000033356	3
20	101056	235.500424033356	1
20	101535	236.000000033356	3
20	101540	236.000424033356	1
20	101657	236.500000033356	3
20	101662	236.500424033356	1
20	101798	237.000000033356	3
20	101803	237.000424033356	1
20	101918	237.500000033356	3
20	101923	237.500424033356	1
20	102050	238.000000033356	3
20	102055	238.000424033356	1
20	102170	238.500000033356	3
20	102175	238.500424033356	1
20	102615	239.000000033356	3
20	102620	239.000424033356	1
20	102737	239.500000033356	3
20	102742	239.500424033356	1
20	102880	240.000000033356	3
20	102885	240.000424033356	1
20	103000	240.500000033356	3
20	103005	240.500424033356	1
20	103131	241.000000033356	3
20	103136	241.000424033356	1
20	103156	241.000448100068	3
20	103162	241.000472100068	1
20	103281	241.500000033356	3
20	103286	241.500424033356	1
20	103422	242.000000033356	3
20	103444	242.000424033356	1
20	104047	242.500000033356	3
20	104052	242.500424033356	1
20	104422	243.000000033356	3
20	104427	243.000424033356	1
20	104879	243.500000033356	3
20	104884	243.500424033356	1
20	105012	244.000000033356	3
20	105017	244.000424033356	1
20	105141	244.500000033356	3
20	105146	244.500424033356	1
20	105272	245.000000033356	3
20	105277	245.000424033356	1
20	105394	245.500000033356	3
20	105399	245.500424033356	1
20	105527	246.000000033356	3
20	105532	246.000424033356	1
20	105899	246.500000033356	3
20	105904	246.500424033356	1
20	106030	247.000000033356	3
20	106035	247.000424033356	1
20	106157	247.500000033356	3
20	106162	247.500424033356	1
20	106288	248.000000033356	3
20	106293	248.000424033356	1
20	106408	248.500000033356	3
20	106413	248.500424033356	1
20	106543	249.000000033356	3
20	106548	249.000424033356	1
20	106992	249.500000033356	3
20	106997	249.500424033356	1
20	107123	250.000000033356	3
20	107128	250.000424033356	1
20	107251	250.500000033356	3
20	107256	250.500424033356	1
20	107382	251.000000033356	3
20	107387	251.000424033356	1
20	107504	251.500000033356	3
20	107509	251.500424033356	1
20	107637	252.000000033356	3
20	107642	252.000424033356	1
20	107765	252.500000033356	3
20	107770	252.500424033356	1
20	108478	253.000000033356	3
20	108483	253.000424033356	1
20	108958	253.500000033356	3
20	108963	253.500424033356	1
20	109330	254.000000033356	3
20	109335	254.000424033356	1
20	109451	254.500000033356	3
20	109456	254.500424033356	1
20	109588	255.000000033356	3
20	109593	255.000424033356	1
20	109708	255.500000033356	3
20	109713	255.500424033356	1
20	109839	256.000000033356	3
20	109844	256.000424033356	1
20	109961	256.500000033356	3
20	109966	256.500424033356	1
20	110387	257.000000033356	3
20	110392	257.000424033356	1
20	110509	257.500000033356	3
20	110514	257.500424033356	1
20	110652	258.000000033356	3
20	110657	258.000424033356	1
20	110774	258.500000033356	3
20	110779	258.500424033356	1
20	110910	259.000000033356	3
20	110915	259.000424033356	1
20	111030	259.500000033356	3
20	111035	259.500424033356	1
20	111510	260.000000033356	3
20	111515	260.000424033356	1
20	111630	260.500000033356	3
20	111635	260.500424033356	1
20	111770	261.000000033356	3
20	111775	261.000424033356	1
20	111892	261.500000033356	3
20	111897	261.500424033356	1
20	112025	262.000000033356	3
20	112030	262.000424033356	1
20	112145	262.500000033356	3
20	112150	262.500424033356	1
20	112284	263.000000033356	3
20	112289	263.000424033356	1
20	113024	263.500000033356	3
20	113029	263.500424033356	1
20	113499	264.000000033356	3
20	113504	264.000424033356	1
20	113887	264.500000033356	3
20	113892	264.500424033356	1
20	114021	265.000000033356	3
20	114026	265.000424033356	1
20	114149	265.500000033356	3
20	114154	265.500424033356	1
20	114282	266.000000033356	3
20	114287	266.000424033356	1
20	114402	266.500000033356	3
20	114407	266.500424033356	1
20	114533	267.000000033356	3
20	114538	267.000424033356	1
20	114915	267.500000033356	3
20	114920	267.500424033356	1
20	115048	268.000000033356	3
20	115053	268.000424033356	1
20	115176	268.500000033356	3
20	115181	268.500424033356	1
20	115308	269.000000033356	3
20	115313	269.000424033356	1
20	115432	269.500000033356	3
20	115437	269.500424033356	1
20	115566	270.000000033356	3
20	115571	270.000424033356	1
20	116006	270.500000033356	3
20	116011	270.500424033356	1
20	116137	271.000000033356	3
20	116142	271.000424033356	1
20	116268	271.500000033356	3
20	116273	271.500424033356	1
20	116401	272.000000033356	3
20	116406	272.000424033356	1
20	116523	272.500000033356	3
20	116528	272.500424033356	1
20	116656	273.000000033356	3
20	116661	273.000424033356	1
20	116784	273.500000033356	3
20	116789	273.500424033356	1
20	117393	274.000000033356	3
20	117398	274.000424033356	1
20	117794	274.500000033356	3
20	117799	274.500424033356	1
20	118254	275.000000033356	3
20	118259	275.000424033356	1
20	118376	275.500000033356	3
20	118381	275.500424033356	1
20	118517	276.000000033356	3
20	118522	276.000424033356	1
20	118637	276.500000033356	3
20	118642	276.500424033356	1
20	118768	277.000000033356	3
20	118773	277.000424033356	1
20	118888	277.500000033356	3
20	118893	277.500424033356	1
20	119290	278.000000033356	3
20	119295	278.000424033356	1
20	119412	278.500000033356	3
20	119417	278.500424033356	1
20	119553	279.000000033356	3
20	119558	279.000424033356	1
20	119673	279.500000033356	3
20	119678	279.500424033356	1
20	119806	280.000000033356	3
20	119811	280.000424033356	1
20	119930	280.500000033356	3
20	119935	280.500424033356	1
20	120360	281.000000033356	3
20	120365	281.000424033356	1
20	120480	281.500000033356	3
20	120485	281.500424033356	1
20	120617	282.000000033356	3
20	120622	282.000424033356	1
20	120739	282.500000033356	3
20	120744	282.500424033356	1
20	120872	283.000000033356	3
20	120877	283.000424033356	1
20	120995	283.500000033356	3
20	121000	283.500424033356	1
20	121137	284.000000033356	3
20	121151	284.000424033356	1
20	121848	284.500000033356	3
20	121853	284.500424033356	1
20	122327	285.000000033356	3
20	122332	285.000424033356	1
20	122765	285.500000033356	3
20	122770	285.500424033356	1
20	122896	286.000000033356	3
20	122901	286.000424033356	1
20	123024	286.500000033356	3
20	123029	286.500424033356	1
20	123155	287.000000033356	3
20	123160	287.000424033356	1
20	123275	287.500000033356	3
20	123280	287.500424033356	1
20	123406	288.000000033356	3
20	123411	288.000424033356	1
20	123821	288.500000033356	3
20	123826	288.500424033356	1
20	123954	289.000000033356	3
20	123959	289.000424033356	1
20	124083	289.500000033356	3
20	124088	289.500424033356	1
20	124216	290.000000033356	3
20	124221	290.000424033356	1
20	124336	290.500000033356	3
20	124341	290.500424033356	1
20	124469	291.000000033356	3
20	124474	291.000424033356	1
20	124888	291.500000033356	3
20	124893	291.500424033356	1
20	125021	292.000000033356	3
20	125026	292.000424033356	1
20	125148	292.500000033356	3
20	125153	292.500424033356	1
20	125279	293.000000033356	3
20	125284	293.000424033356	1
20	125401	293.500000033356	3
20	125406	293.500424033356	1
20	125536	294.000000033356	3
20	125541	294.000424033356	1
20	125665	294.500000033356	3
20	125670	294.500424033356	1
20	126315	295.000000033356	3
20	126320	295.000424033356	1
20	126741	295.500000033356	3
20	126746	295.500424033356	1
20	127157	296.000000033356	3
20	127162	296.000424033356	1
20	127278	296.500000033356	3
20	127283	296.500424033356	1
20	127415	297.000000033356	3
20	127420	297.000424033356	1
20	127537	297.500000033356	3
20	127542	297.500424033356	1
20	127670	298.000000033356	3
20	127675	298.000424033356	1
20	127790	298.500000033356	3
20	127795	298.500424033356	1
20	128195	299.000000033356	3
20	128200	299.000424033356	1
20	128315	299.500000033356	3
20	128320	299.500424033356	1
20	128454	300.000000033356	3
20	128459	300.000424033356	1
20	128576	300.500000033356	3
20	128581	300.500424033356	1
20	128711	301.000000033356	3
20	128716	301.000424033356	1
20	128835	301.500000033356	3
20	128840	301.500424033356	1
20	129267	302.000000033356	3
20	129272	302.000424033356	1
20	129389	302.500000033356	3
20	129394	302.500424033356	1
20	129530	303.000000033356	3
20	129535	303.000424033356	1
20	129650	303.500000033356	3
20	129655	303.500424033356	1
20	129781	304.000000033356	3
20	129786	304.000424033356	1
20	129904	304.500000033356	3
20	129909	304.500424033356	1
20	130045	305.000000033356	3
20	130050	305.000424033356	1
20	130755	305.500000033356	3
20	130760	305.500424033356	1
20	131219	306.000000033356	3
20	131224	306.000424033356	1
20	131627	306.500000033356	3
20	131632	306.500424033356	1
20	131760	307.000000033356	3
20	131765	307.000424033356	1
20	131889	307.500000033356	3
20	131894	307.500424033356	1
20	132022	308.000000033356	3
20	132027	308.000424033356	1
20	132144	308.500000033356	3
20	132149	308.500424033356	1
20	132277	309.000000033356	3
20	132282	309.000424033356	1
20	132642	309.500000033356	3
20	132647	309.500424033356	1
20	132775	310.000000033356	3
20	132780	310.000424033356	1
20	132904	310.500000033356	3
20	132909	310.500424033356	1
20	133037	311.000000033356	3
20	133042	311.000424033356	1
20	133159	311.500000033356	3
20	133164	311.500424033356	1
20	133295	312.000000033356	3
20	133300	312.000424033356	1
20	133687	312.500000033356	3
20	133692	312.500424033356	1
20	133818	313.000000033356	3
20	133823	313.000424033356	1
20	133948	313.500000033356	3
20	133953	313.500424033356	1
20	134081	314.000000033356	3
20	134086	314.000424033356	1
20	134201	314.500000033356	3
20	134206	314.500424033356	1
20	134333	315.000000033356	3
20	134338	315.000424033356	1
20	134463	315.500000033356	3
20	134484	315.500424033356	1
20	135131	316.000000033356	3
20	135136	316.000424033356	1
20	135572	316.500000033356	3
20	135577	316.500424033356	1
20	135978	317.000000033356	3
20	135983	317.000424033356	1
20	136100	317.500000033356	3
20	136105	317.500424033356	1
20	136241	318.000000033356	3
20	136246	318.000424033356	1
20	136361	318.500000033356	3
20	136366	318.500424033356	1
20	136492	319.000000033356	3
20	136497	319.000424033356	1
20	136612	319.500000033356	3
20	136617	319.500424033356	1
20	137071	320.000000033356	3
20	137076	320.000424033356	1
20	137191	320.500000033356	3
20	137196	320.500424033356	1
20	137330	321.000000033356	3
20	137335	321.000424033356	1
20	137452	321.500000033356	3
20	137457	321.500424033356	1
20	137585	322.000000033356	3
20	137590	322.000424033356	1
20	137708	322.500000033356	3
20	137713	322.500424033356	1
20	138172	323.000000033356	3
20	138177	323.000424033356	1
20	138294	323.500000033356	3
20	138299	323.500424033356	1
20	138435	324.000000033356	3
20	138440	324.000424033356	1
20	138555	324.500000033356	3
20	138560	324.500424033356	1
20	138686	325.000000033356	3
20	138691	325.000424033356	1
20	138808	325.500000033356	3
20	138813	325.500424033356	1
20	138950	326.000000033356	3
20	138972	326.000424033356	1
20	139627	326.500000033356	3
20	139632	326.500424033356	1
20	140069	327.000000033356	3
20	140074	327.000424033356	1
20	140437	327.500000033356	3
20	140442	327.500424033356	1
20	140570	328.000000033356	3
20	140575	328.000424033356	1
20	140699	328.500000033356	3
20	140704	328.500424033356	1
20	140830	329.000000033356	3
20	140835	329.000424033356	1
20	140950	329.500000033356	3
20	140955	329.500424033356	1
20	141081	330.000000033356	3
20	141086	330.000424033356	1
20	141506	330.500000033356	3
20	141511	330.500424033356	1
20	141637	331.000000033356	3
20	141642	331.000424033356	1
20	141766	331.500000033356	3
20	141771	331.500424033356	1
20	141897	332.000000033356	3
20	141902	332.000424033356	1
20	142021	332.500000033356	3
20	142026	332.500424033356	1
20	142154	333.000000033356	3
20	142159	333.000424033356	1
20	142550	333.500000033356	3
20	142555	333.500424033356	1
20	142683	334.000000033356	3
20	142688	334.000424033356	1
20	142813	334.500000033356	3
20	142818	334.500424033356	1
20	142946	335.000000033356	3
20	142951	335.000424033356	1
20	143066	335.500000033356	3
20	143071	335.500424033356	1
20	143197	336.000000033356	3
20	143202	336.000424033356	1
20	143326	336.500000033356	3
20	143378	336.500424033356	1
20	144075	337.000000033356	3
20	144080	337.000424033356	1
20	144503	337.500000033356	3
20	144508	337.500424033356	1
20	144959	338.000000033356	3
20	144964	338.000424033356	1
20	145081	338.500000033356	3
20	145086	338.500424033356	1
20	145222	339.000000033356	3
20	145227	339.000424033356	1
20	145344	339.500000033356	3
20	145349	339.500424033356	1
20	145477	340.000000033356	3
20	145482	340.000424033356	1
20	145597	340.500000033356	3
20	145602	340.500424033356	1
20	146082	341.000000033356	3
20	146087	341.000424033356	1
20	146204	341.500000033356	3
20	146209	341.500424033356	1
20	146346	342.000000033356	3
20	146351	342.000424033356	1
20	146466	342.500000033356	3
20	146471	342.500424033356	1
20	146597	343.000000033356	3
20	146602	343.000424033356	1
20	146717	343.500000033356	3
20	146722	343.500424033356	1
20	147120	344.000000033356	3
20	147125	344.000424033356	1
20	147240	344.500000033356	3
20	147245	344.500424033356	1
20	147379	345.000000033356	3
20	147384	345.000424033356	1
20	147499	345.500000033356	3
20	147504	345.500424033356	1
20	147630	346.000000033356	3
20	147635	346.000424033356	1
20	147753	346.500000033356	3
20	147758	346.500424033356	1
20	147893	347.000000033356	3
20	147898	347.000424033356	1
20	148551	347.500000033356	3
20	148556	347.500424033356	1
20	149009	348.000000033356	3
20	149014	348.000424033356	1
20	149411	348.500000033356	3
20	149416	348.500424033356	1
20	149542	349.000000033356	3
20	149547	349.000424033356	1
20	149670	349.500000033356	3
20	149675	349.500424033356	1
20	149801	350.000000033356	3
20	149806	350.000424033356	1
20	149923	350.500000033356	3
20	149928	350.500424033356	1
20	150056	351.000000033356	3
20	150061	351.000424033356	1
20	150501	351.500000033356	3
20	150506	351.500424033356	1
20	150634	352.000000033356	3
20	150639	352.000424033356	1
20	150762	352.500000033356	3
20	150767	352.500424033356	1
20	150893	353.000000033356	3
20	150898	353.000424033356	1
20	151017	353.500000033356	3
20	151022	353.500424033356	1
20	151151	354.000000033356	3
20	151156	354.000424033356	1
20	151548	354.500000033356	3
20	151553	354.500424033356	1
20	151679	355.000000033356	3
20	151684	355.000424033356	1
20	151808	355.500000033356	3
20	151813	355.500424033356	1
20	151939	356.000000033356	3
20	151944	356.000424033356	1
20	152061	356.500000033356	3
20	152066	356.500424033356	1
20	152196	357.000000033356	3
20	152201	357.000424033356	1
20	152326	357.500000033356	3
20	152351	357.500424033356	1
20	153009	358.000000033356	3
20	153014	358.000424033356	1
20	153491	358.500000033356	3
20	153496	358.500424033356	1
20	153956	359.000000033356	3
20	153961	359.000424033356	1
20	154078	359.500000033356	3
20	154083	359.500424033356	1
20	154219	360.000000033356	3
20	154224	360.000424033356	1
20	154341	360.500000033356	3
20	154346	360.500424033356	1
20	154474	361.000000033356	3
20	154479	361.000424033356	1
20	154596	361.500000033356	3
20	154600	361.500024033356	1
20	154618	361.500048100068	3
20	154625	361.500472100068	1
20	155085	362.000000033356	3
20	155090	362.000424033356	1
20	155205	362.500000033356	3
20	155209	362.500424033356	1
20	155344	363.000000033356	3
20	155348	363.000424033356	1
20	155463	363.500000033356	3
20	155468	363.500424033356	1
20	155595	364.000000033356	3
20	155600	364.000424033356	1
20	155715	364.500000033356	3
20	155720	364.500424033356	1
20	156140	365.000000033356	3
20	156145	365.000424033356	1
20	156260	365.500000033356	3
20	156265	365.500424033356	1
20	156401	366.000000033356	3
20	156406	366.000424033356	1
20	156523	366.500000033356	3
20	156528	366.500424033356	1
20	156656	367.000000033356	3
20	156661	367.000424033356	1
20	156779	367.500000033356	3
20	156784	367.500424033356	1
20	156918	368.000000033356	3
20	156989	368.000424033356	1
20	157567	368.500000033356	3
20	157572	368.500424033356	1
20	157999	369.000000033356	3
20	158004	369.000424033356	1
20	158462	369.500000033356	3
20	158467	369.500424033356	1
20	158595	370.000000033356	3
20	158600	370.000424033356	1
20	158722	370.500000033356	3
20	158727	370.500424033356	1
20	158853	371.000000033356	3
20	158858	371.000424033356	1
20	158975	371.500000033356	3
20	158980	371.500424033356	1
20	159108	372.000000033356	3
20	159113	372.000424033356	1
20	159488	372.500000033356	3
20	159493	372.500424033356	1
20	159619	373.000000033356	3
20	159624	373.000424033356	1
20	159750	373.500000033356	3
20	159755	373.500424033356	1
20	159883	374.000000033356	3
20	159888	374.000424033356	1
20	160005	374.500000033356	3
20	160010	374.500424033356	1
20	160141	375.000000033356	3
20	160146	375.000424033356	1
20	160610	375.500000033356	3
20	160615	375.500424033356	1
20	160741	376.000000033356	3
20	160746	376.000424033356	1
20	160869	376.500000033356	3
20	160874	376.500424033356	1
20	161000	377.000000033356	3
20	161005	377.000424033356	1
20	161122	377.500000033356	3
20	161127	377.500424033356	1
20	161255	378.000000033356	3
20	161260	378.000424033356	1
20	161385	378.500000033356	3
20	161413	378.500424033356	1
20	162137	379.000000033356	3
20	162142	379.000424033356	1
20	162583	379.500000033356	3
20	162588	379.500424033356	1
20	163027	380.000000033356	3
20	163032	380.000424033356	1
20	163149	380.500000033356	3
20	163154	380.500424033356	1
20	163289	381.000000033356	3
20	163294	381.000424033356	1
20	163409	381.500000033356	3
20	163414	381.500424033356	1
20	163540	382.000000033356	3
20	163545	382.000424033356	1
20	163662	382.500000033356	3
20	163667	382.500424033356	1
20	164132	383.000000033356	3
20	164137	383.000424033356	1
20	164254	383.500000033356	3
20	164259	383.500424033356	1
20	164393	384.000000033356	3
20	164398	384.000424033356	1
20	164513	384.500000033356	3
20	164518	384.500424033356	1
20	164645	385.000000033356	3
20	164650	385.000424033356	1
20	164767	385.500000033356	3
20	164772	385.500424033356	1
20	165239	386.000000033356	3
20	165244	386.000424033356	1
20	165361	386.500000033356	3
20	165366	386.500424033356	1
20	165502	387.000000033356	3
20	165507	387.000424033356	1
20	165622	387.500000033356	3
20	165627	387.500424033356	1
20	165753	388.000000033356	3
20	165758	388.000424033356	1
20	165876	388.500000033356	3
20	165881	388.500424033356	1
20	166017	389.000000033356	3
20	166022	389.000424033356	1
20	166726	389.500000033356	3
20	166731	389.500424033356	1
20	167116	390.000000033356	3
20	167121	390.000424033356	1
20	167515	390.500000033356	3
20	167520	390.500424033356	1
20	167648	391.000000033356	3
20	167653	391.000424033356	1
20	167779	391.500000033356	3
20	167784	391.500424033356	1
20	167912	392.000000033356	3
20	167917	392.000424033356	1
20	168034	392.500000033356	3
20	168039	392.500424033356	1
20	168167	393.000000033356	3
20	168172	393.000424033356	1
20	168568	393.500000033356	3
20	168573	393.500424033356	1
20	168701	394.000000033356	3
20	168706	394.000424033356	1
20	168829	394.500000033356	3
20	168834	394.500424033356	1
20	168962	395.000000033356	3
20	168967	395.000424033356	1
20	169084	395.500000033356	3
20	169089	395.500424033356	1
20	169219	396.000000033356	3
20	169224	396.000424033356	1
20	169686	396.500000033356	3
20	169691	396.500424033356	1
20	169819	397.000000033356	3
20	169824	397.000424033356	1
20	169949	397.500000033356	3
20	169954	397.500424033356	1
20	170082	398.000000033356	3
20	170087	398.000424033356	1
20	170204	398.500000033356	3
20	170209	398.500424033356	1
20	170337	399.000000033356	3
20	170342	399.000424033356	1
20	170465	399.500000033356	3
20	170470	399.500424033356	1
20	171143	400.000000033356	3
20	171148	400.000424033356	1
20	171588	400.500000033356	3
20	171593	400.500424033356	1
20	172087	401.000000033356	3
20	172092	401.000424033356	1
20	172209	401.500000033356	3
20	172214	401.500424033356	1
20	172352	402.000000033356	3
20	172357	402.000424033356	1
20	172472	402.500000033356	3
20	172477	402.500424033356	1
20	172603	403.000000033356	3
20	172608	403.000424033356	1
20	172725	403.500000033356	3
20	172730	403.500424033356	1
20	173164	404.000000033356	3
20	173169	404.000424033356	1
20	173286	404.500000033356	3
20	173291	404.500424033356	1
20	173427	405.000000033356	3
20	173432	405.000424033356	1
20	173549	405.500000033356	3
20	173554	405.500424033356	1
20	173682	406.000000033356	3
20	173687	406.000424033356	1
20	173805	406.500000033356	3
20	173810	406.500424033356	1
20	174228	407.000000033356	3
20	174233	407.000424033356	1
20	174350	407.500000033356	3
20	174355	407.500424033356	1
20	174493	408.000000033356	3
20	174498	408.000424033356	1
20	174613	408.500000033356	3
20	174618	408.500424033356	1
20	174744	409.000000033356	3
20	174749	409.000424033356	1
20	174868	409.500000033356	3
20	174873	409.500424033356	1
20	175009	410.000000033356	3
20	175025	410.000424033356	1
20	175739	410.500000033356	3
20	175744	410.500424033356	1
20	176208	411.000000033356	3
20	176213	411.000424033356	1
20	176599	411.500000033356	3
20	176604	411.500424033356	1
20	176730	412.000000033356	3
20	176735	412.000424033356	1
20	176859	412.500000033356	3
20	176864	412.500424033356	1
20	176990	413.000000033356	3
20	176995	413.000424033356	1
20	177110	413.500000033356	3
20	177115	413.500424033356	1
20	177241	414.000000033356	3
20	177246	414.000424033356	1
20	177676	414.500000033356	3
20	177681	414.500424033356	1
20	177807	415.000000033356	3
20	177812	415.000424033356	1
20	177938	415.500000033356	3
20	177943	415.500424033356	1
20	178071	416.000000033356	3
20	178076	416.000424033356	1
20	178193	416.500000033356	3
20	178198	416.500424033356	1
20	178327	417.000000033356	3
20	178332	417.000424033356	1
20	178816	417.500000033356	3
20	178821	417.500424033356	1
20	178949	418.000000033356	3
20	178954	418.000424033356	1
20	179080	418.500000033356	3
20	179085	418.500424033356	1
20	179213	419.000000033356	3
20	179218	419.000424033356	1
20	179333	419.500000033356	3
20	179338	419.500424033356	1
20	179464	420.000000033356	3
20	179469	420.000424033356	1
20	179594	420.500000033356	3
20	179610	420.500424033356	1
20	180275	421.000000033356	3
20	180280	421.000424033356	1
20	180737	421.500000033356	3
20	180742	421.500424033356	1
20	181203	422.000000033356	3
20	181208	422.000424033356	1
20	181325	422.500000033356	3
20	181330	422.500424033356	1
20	181466	423.000000033356	3
20	181471	423.000424033356	1
20	181588	423.500000033356	3
20	181593	423.500424033356	1
20	181721	424.000000033356	3
20	181726	424.000424033356	1
20	181843	424.500000033356	3
20	181848	424.500424033356	1
20	182263	425.000000033356	3
20	182268	425.000424033356	1
20	182383	425.500000033356	3
20	182388	425.500424033356	1
20	182522	426.000000033356	3
20	182527	426.000424033356	1
20	182644	426.500000033356	3
20	182649	426.500424033356	1
20	182777	427.000000033356	3
20	182782	427.000424033356	1
20	182902	427.500000033356	3
20	182907	427.500424033356	1
20	183388	428.000000033356	3
20	183393	428.000424033356	1
20	183510	428.500000033356	3
20	183515	428.500424033356	1
20	183651	429.000000033356	3
20	183656	429.000424033356	1
20	183773	429.500000033356	3
20	183778	429.500424033356	1
20	183906	430.000000033356	3
20	183911	430.000424033356	1
20	184027	430.500000033356	3
20	184032	430.500424033356	1
20	184166	431.000000033356	3
20	184190	431.000424033356	1
20	184815	431.500000033356	3
20	184820	431.500424033356	1
20	185201	432.000000033356	3
20	185206	432.000424033356	1
20	185620	432.500000033356	3
20	185625	432.500424033356	1
20	185751	433.000000033356	3
20	185756	433.000424033356	1
20	185880	433.500000033356	3
20	185885	433.500424033356	1
20	186013	434.000000033356	3
20	186018	434.000424033356	1
20	186133	434.500000033356	3
20	186138	434.500424033356	1
20	186264	435.000000033356	3
20	186269	435.000424033356	1
20	186659	435.500000033356	3
20	186664	435.500424033356	1
20	186790	436.000000033356	3
20	186795	436.000424033356	1
20	186921	436.500000033356	3
20	186926	436.500424033356	1
20	187054	437.000000033356	3
20	187059	437.000424033356	1
20	187174	437.500000033356	3
20	187179	437.500424033356	1
20	187308	438.000000033356	3
20	187313	438.000424033356	1
20	187705	438.500000033356	3
20	187710	438.500424033356	1
20	187836	439.000000033356	3
20	187841	439.000424033356	1
20	187965	439.500000033356	3
20	187970	439.500424033356	1
20	188096	440.000000033356	3
20	188101	440.000424033356	1
20	188218	440.500000033356	3
20	188223	440.500424033356	1
20	188352	441.000000033356	3
20	188357	441.000424033356	1
20	188482	441.500000033356	3
20	188516	441.500424033356	1
20	189228	442.000000033356	3
20	189233	442.000424033356	1
20	189676	442.500000033356	3
20	189681	442.500424033356	1
20	190157	443.000000033356	3
20	190162	443.000424033356	1
20	190279	443.500000033356	3
20	190284	443.500424033356	1
20	190420	444.000000033356	3
20	190425	444.000424033356	1
20	190542	444.500000033356	3
20	190547	444.500424033356	1
20	190675	445.000000033356	3
20	190680	445.000424033356	1
20	190795	445.500000033356	3
20	190800	445.500424033356	1
20	191274	446.000000033356	3
20	191279	446.000424033356	1
20	191396	446.500000033356	3
20	191401	446.500424033356	1
20	191538	447.000000033356	3
20	191543	447.000424033356	1
20	191660	447.500000033356	3
20	191665	447.500424033356	1
20	191793	448.000000033356	3
20	191798	448.000424033356	1
20	191915	448.500000033356	3
20	191920	448.500424033356	1
20	192384	449.000000033356	3
20	192389	449.000424033356	1
20	192506	449.500000033356	3
20	192511	449.500424033356	1
20	192647	450.000000033356	3
20	192652	450.000424033356	1
20	192769	450.500000033356	3
20	192774	450.500424033356	1
20	192902	451.000000033356	3
20	192907	451.000424033356	1
20	193025	451.500000033356	3
20	193030	451.500424033356	1
20	193166	452.000000033356	3
20	193171	452.000424033356	1
20	193854	452.500000033356	3
20	193859	452.500424033356	1
20	194338	453.000000033356	3
20	194343	453.000424033356	1
20	194746	453.500000033356	3
20	194751	453.500424033356	1
20	194877	454.000000033356	3
20	194882	454.000424033356	1
20	195002	454.500000033356	3
20	195007	454.500424033356	1
20	195133	455.000000033356	3
20	195138	455.000424033356	1
20	195253	455.500000033356	3
20	195258	455.500424033356	1
20	195384	456.000000033356	3
20	195389	456.000424033356	1
20	195836	456.500000033356	3
20	195841	456.500424033356	1
20	195967	457.000000033356	3
20	195972	457.000424033356	1
20	196095	457.500000033356	3
20	196100	457.500424033356	1
20	196226	458.000000033356	3
20	196231	458.000424033356	1
20	196348	458.500000033356	3
20	196353	458.500424033356	1
20	196482	459.000000033356	3
20	196487	459.000424033356	1
20	196911	459.500000033356	3
20	196916	459.500424033356	1
20	197044	460.000000033356	3
20	197049	460.000424033356	1
20	197170	460.500000033356	3
20	197175	460.500424033356	1
20	197301	461.000000033356	3
20	197306	461.000424033356	1
20	197423	461.500000033356	3
20	197428	461.500424033356	1
20	197558	462.000000033356	3
20	197563	462.000424033356	1
20	197689	462.500000033356	3
20	197714	462.500424033356	1
20	198370	463.000000033356	3
20	198375	463.000424033356	1
21	0	0	1
21	211	0.503263103931	2
21	217	0.503287103931	1
21	235	0.503311170643	2
21	241	0.503343170643	1
21	262	0.503767237355	2
21	275	0.503802437355	1
21	851	1.000424033356	2
21	857	1.000459233356	1
21	1267	1.500424033356	2
21	1273	1.500459233356	1
21	1731	2.000424033356	2
21	1737	2.000459233356	1
21	1851	2.500424033356	2
21	1857	2.500459233356	1
21	1992	3.000424033356	2
21	1998	3.000459233356	1
21	2113	3.500424033356	2
21	2119	3.500459233356	1
21	2245	4.000424033356	2
21	2251	4.000459233356	1
21	2366	4.500424033356	2
21	2372	4.500459233356	1
21	2809	5.000424033356	2
21	2814	5.000459233356	1
[...]
119	49558	116.001016217661	52
119	49900	116.323902897295	52
119	50349	116.804629883605	52
119	50392	116.804957075421	52
119	52822	123.360255950371	52
119	53964	126.500682546561	52
119	54892	127.304755754019	52
119	55237	127.944417836521	52
119	57250	133.863251953506	52
119	58542	137.007040867525	52
119	58702	137.323557056671	52
119	59172	137.803617708468	52
119	59184	137.803804165107	52
119	60887	141.406994458084	52
119	61783	144.363424525353	52
119	62962	147.502348955329	52
119	63181	147.508221978419	52
119	63810	148.304932261597	52
119	64157	148.942270347859	52
119	64302	148.94563038516	52
119	65397	151.904736926474	52
119	66328	154.86054750564	52
119	66532	154.866948732152	52
119	67709	158.008514286329	52
119	67804	158.320712612409	52
119	68327	158.80509697956	52
119	68693	159.442080209987	52
119	69957	162.403487875228	52
119	72199	168.503876946726	52
119	72403	168.822305664895	52
119	72586	168.826735964308	52
119	73034	169.304518490901	52
119	73046	169.304554185523	52
119	73374	169.943562495243	52
119	73381	169.943596095243	52
119	74581	172.904009997474	52
119	75682	175.864798417394	52
119	76664	179.000866139087	52
119	76839	179.005111863598	52
119	76946	179.320428714659	52
119	77379	179.801167259737	52
119	77839	180.442635453804	52
119	78916	183.402764728275	52
119	79099	183.408255696569	52
119	80161	186.368253590905	52
119	81079	189.500372464506	52
119	83385	193.900435205174	52
119	84649	196.867572809465	52
119	85680	200.002224701051	52
119	85972	200.324095888147	52
119	86144	200.328271141194	52
119	86378	200.800291543334	52
119	86390	200.800689016781	52
119	86866	201.441879280971	52
119	86996	201.444216125512	52
119	87907	204.401013463912	52
119	90789	211.300895280079	52
119	91320	211.94410145182	52
119	92468	214.903723139855	52
119	93530	217.86291808236	52
119	93613	217.865553250749	52
119	94681	221.005575543027	52
119	94989	221.324876726477	52
119	95275	221.80339071679	52
119	95936	222.44866491251	52
119	96908	225.402915222234	52
119	99300	231.820557605465	52
119	101183	235.901718584433	52
119	102316	238.862917487314	52
119	102365	238.863826620384	52
119	104218	242.80358904171	52
119	104585	243.4424288283	52
119	105617	246.400512274672	52
119	106675	249.363090537734	52
119	107829	252.501140778991	52
119	108202	252.824154119521	52
119	108220	252.824409917954	52
119	108612	253.302916548616	52
119	110186	256.903379699085	52
119	110232	256.904488952423	52
119	111164	259.862106466539	52
119	112557	263.006771529346	52
119	112662	263.320299815326	52
119	113401	263.80960841504	52
119	114674	267.403066380384	52
119	115722	270.361953012414	52
119	116856	273.502161209418	52
119	117215	273.823876665171	52
119	117600	274.305462526358	52
119	117941	274.942280560354	52
119	119019	277.903039700864	52
119	121257	284.004247147926	52
119	121511	284.321044965245	52
119	121747	284.32778690003	52
119	121955	284.800544769117	52
119	123502	288.400702685091	52
119	123730	288.408165323477	52
119	124697	291.364625163242	52
119	125858	294.505526427139	52
119	126133	294.824394280991	52
119	126414	295.302609693356	52
119	129160	301.867636992871	52
119	130538	305.323829027578	52
119	130600	305.326194407864	52
119	130917	305.80244326194	52
119	130962	305.803211655157	52
119	132553	309.406435207462	52
119	133374	312.360172287154	52
119	134514	315.500580815438	52
119	134945	315.824693028669	52
119	135712	316.941824661659	52
119	135741	316.94292354892	52
119	136705	319.901823882862	52
119	136743	319.903365097571	52
119	137940	322.864120855978	52
119	141228	330.403282687698	52
119	142293	333.363378492417	52
119	143485	336.502841514011	52
119	143555	336.504500763557	52
119	145893	340.905648416131	52
119	146842	343.862396008881	52
119	148024	347.004133527851	52
119	148722	347.803818627143	52
119	151275	354.362976836832	52
119	152536	357.505005905364	52
119	152656	357.820759262423	52
119	153091	358.301418842842	52
119	153754	358.944353583942	52
119	154718	361.900273262614	52
119	155813	364.862547366013	52
119	155838	364.862956008287	52
119	156966	368.000258427335	52
119	157817	368.806381468138	52
119	158155	369.443290530158	52
119	159264	372.402596973988	52
119	160281	375.361574368244	52
119	161403	378.500328345031	52
119	161734	378.820593031353	52
119	162273	379.303079702986	52
119	162775	379.94410685511	52
119	163826	382.902321932079	52
119	166083	389.002755370789	52
119	166133	389.004016090747	52
119	166825	389.802106341139	52
119	167342	390.44388031172	52
119	169439	396.364531563953	52
119	170612	399.504945324644	52
119	170624	399.505031124655	52
119	171270	400.302701097264	52
119	171346	400.303465300682	52
119	171722	400.942403182321	52
119	171761	400.943075685592	52
119	173954	406.862165718017	52
119	174054	406.865111620989	52
119	175055	410.000699850358	52
119	175309	410.0090392384	52
119	175431	410.322732211678	52
119	176353	411.442152602749	52
119	177429	414.403352350864	52
119	178493	417.362906278996	52
119	178525	417.363252851882	52
119	179962	420.820828215592	52
119	180378	421.302744746509	52
119	182057	424.904438993055	52
119	184177	431.000215255306	52
119	184655	431.326581774857	52
119	186417	435.402263832235	52
119	187597	438.366089955128	52
119	188510	441.50026835449	52
119	188860	441.822030654244	52
119	189799	442.941402513298	52
119	190012	442.946717556623	52
119	190985	445.903860827097	52
119	193201	452.000602541082	52
119	193553	452.322679587111	52
119	193757	452.329798680465	52
119	193940	452.801991319891	52
119	194425	453.440063557913	52
119	195597	456.403665796582	52
119	196590	459.360872493198	52
119	197744	462.500695263481	52
119	197932	462.506411181966	52
119	198443	463.300121385124	52
120	1040	1.302816867424	72
120	1094	1.303904901859	72
120	1371	1.941223142115	72
120	1449	1.943386922794	72
120	2552	4.903945389882	72
120	3594	7.863127776231	72
120	4992	11.321760491819	72
120	5197	11.327954176604	72
120	6010	12.448334896685	72
120	7888	18.361005444524	72
120	8071	18.367429461334	72
120	9221	21.506713027489	72
120	9378	21.823333932734	72
120	9567	21.826020972848	72
120	9926	22.305038089812	72
120	10260	22.942928345363	72
120	11367	25.904680190493	72
120	14729	33.44144723166	72
120	14845	33.444586277672	72
120	15757	36.403127864277	72
120	17014	39.365822454952	72
120	17970	42.504492738243	72
120	18380	42.822939143066	72
120	18473	42.825478423373	72
120	18905	43.30481261543	72
120	20267	46.901959431091	72
120	20365	46.903788841667	72
120	22565	53.00408055828	72
120	23308	53.803044879305	72
120	23690	54.442067963401	72
120	23700	54.442124279472	72
120	24809	57.403671468406	72
120	25837	60.363820554129	72
120	25864	60.364493684728	72
120	26993	63.503219643971	72
120	28170	64.944605231104	72
120	29285	67.904639694479	72
120	30443	70.867038963318	72
120	31503	74.004292776346	72
120	31883	74.324187305524	72
120	32330	74.803451468861	72
120	34867	81.362812128625	72
120	36057	84.502664136639	72
120	36152	84.504519020836	72
120	36327	84.821725140382	72
120	36802	85.303139435064	72
120	37222	85.940104990976	72
120	37416	85.944397316846	72
120	38393	88.903596930753	72
120	39569	91.864749895308	72
120	41347	95.803391371915	72
120	41860	96.442348983671	72
120	44076	102.362606135117	72
120	45186	105.502989588093	72
120	45434	105.820375197225	72
120	50304	116.803874949678	72
120	52926	123.364128571771	72
120	54848	127.303681790366	72
120	55256	127.9450247282	72
120	55341	127.948693762518	72
120	56181	130.900811099536	72
120	57261	133.863757127416	72
120	58514	137.004132182459	72
120	59114	137.801042287059	72
120	60822	141.40460089646	72
120	61735	144.361060683197	72
120	62973	147.502745058387	72
120	63017	147.503377646146	72
120	63297	147.823245090273	72
120	63799	148.304029913067	72
120	63965	148.308546283585	72
120	64229	148.944653124913	72
120	65450	151.907079922931	72
120	66450	154.865012084409	72
120	67589	158.003672677173	72
120	67828	158.321249866265	72
120	68166	158.800938941772	72
120	68704	159.443318428203	72
120	68835	159.447017467612	72
120	69823	162.400898126096	72
120	72146	168.502537118533	72
120	72512	168.824755032534	72
120	72971	169.304000741375	72
120	73111	169.306238699713	72
120	73342	169.943069941174	72
120	73467	169.947023792259	72
120	74664	172.905962040854	72
120	75759	175.868560969512	72
120	76808	179.004154257306	72
120	76957	179.321236064671	72
120	77427	179.802746952279	72
120	77817	180.441609686655	72
120	78964	183.404235656778	72
120	80045	186.364362952221	72
120	81129	189.501009200375	72
120	81240	189.504881645302	72
120	83495	193.903509900498	72
120	84460	196.863281287081	72
120	85661	200.001412039536	72
120	85993	200.324504918703	72
120	86367	200.800211493401	72
120	86855	201.441461455252	72
120	87030	201.446755240877	72
120	87945	204.402059058845	72
120	88967	207.363412116717	72
120	90875	211.30457409104	72
120	91210	211.940102914707	72
120	91348	211.94491368911	72
120	92524	214.90528716288	72
120	93396	217.861086991567	72
120	94594	221.00171548668	72
120	95067	221.328880911599	72
120	95219	221.801517392473	72
120	95851	222.44491296549	72
120	96810	225.401442500751	72
120	99143	231.503929114698	72
120	99392	231.821739463184	72
120	102305	238.862279904858	72
120	102509	238.86781749838	72
120	103628	242.004026524682	72
120	104121	242.800247652473	72
120	104512	243.440387847099	72
120	105675	246.40252192723	72
120	106852	249.367336117812	72
120	107900	252.50398830962	72
120	108113	252.820320183618	72
120	108653	253.303822414296	72
120	109096	253.943380684255	72
120	110062	256.900631311519	72
120	110285	256.906766262127	72
120	111285	259.864866205919	72
120	112441	263.003905204543	72
120	112773	263.323249391521	72
120	113286	263.80468260475	72
120	114826	267.407041344169	72
120	115661	270.360796539134	72
120	116827	273.500768014139	72
120	117269	273.825073229542	72
120	117484	274.30098923942	72
120	117910	274.94182743377	72
120	118103	274.945882996885	72
120	118970	277.900607497737	72
120	119139	277.905417004318	72
120	121299	284.005012271834	72
120	121604	284.323245690102	72
120	121648	284.324502282514	72
120	122103	284.804296655338	72
120	122166	284.804862285718	72
120	123628	288.404175832861	72
120	123655	288.404669587661	72
120	124776	291.369400763688	72
120	125717	294.50119868749	72
120	126030	294.821341232852	72
120	126425	295.302749344061	72
120	127914	298.902194011044	72
120	129014	301.86388857495	72
120	130256	305.004616617258	72
120	130565	305.324465819591	72
120	130830	305.800044152813	72
120	132457	309.40400461376	72
120	135272	316.301557304323	72
120	135673	316.940326805329	72
120	136694	319.900981803296	72
120	136836	319.904606146276	72
120	139782	326.80352305336	72
120	141163	330.400389845712	72
120	141255	330.403416553801	72
120	142376	333.365370799118	72
120	143336	336.500078264225	72
120	143758	336.824137150203	72
120	145724	340.902999759388	72
120	146998	343.867369190186	72
120	148117	347.006796558873	72
120	151247	354.361570049092	72
120	152421	357.503867258114	72
120	153142	358.302467700312	72
120	153698	358.943852918331	72
120	154740	361.900848744709	72
120	154803	361.902895573593	72
120	155802	364.86137162641	72
120	155894	364.86427628152	72
120	157073	368.001395922392	72
120	157176	368.004735021732	72
120	157693	368.803038428731	72
120	158104	369.440211197966	72
120	159207	372.400811405026	72
120	160499	375.36535689016	72
120	161835	378.823520807467	72
120	162329	379.304261846216	72
120	163985	382.905833746346	72
120	164928	385.862473145756	72
120	166105	389.003583894874	72
120	166372	389.321146333203	72
120	166844	389.802296601635	72
120	167446	390.448876279131	72
120	168308	393.403687931263	72
120	169545	396.367539987506	72
120	170536	399.503084098054	72
120	170655	399.505152527955	72
120	171215	400.300042155914	72
120	171674	400.940522529037	72
120	171750	400.94301671521	72
120	173885	406.860579572047	72
120	173982	406.863468314836	72
120	175235	410.004954284544	72
120	175245	410.00502052252	72
120	175589	410.32645017234	72
120	175879	410.802569044178	72
120	176407	411.443061454046	72
120	176496	411.44613918468	72
120	177601	414.407556404097	72
120	178414	417.360982047035	72
120	179665	420.501343073036	72
120	180563	421.304207080679	72
120	180861	421.942512179822	72
120	182033	424.903533442815	72
120	182178	424.908462706584	72
120	183086	427.863449784423	72
120	184527	431.323074246743	72
120	185041	431.803298946879	72
120	186573	435.40571286362	72
120	187406	438.361069799573	72
120	188725	441.503817811321	72
120	188849	441.821891635814	72
120	189947	442.944723668824	72
120	190905	445.90196593683	72
120	191032	445.904252716136	72
120	191995	448.860311767725	72
120	193233	452.000841829512	72
120	193639	452.3247821933	72
120	194113	452.806183576437	72
120	194482	453.44233538773	72
120	194553	453.444055209455	72
120	196562	459.360158673115	72
120	197783	462.50171784709	72
120	197843	462.502730527587	72
120	198454	463.300751258377	72
120	198571	463.303288747499	72
121	1040	1.302816867424	52
121	1094	1.303904901859	52
121	1371	1.941223142115	52
121	1449	1.943386922794	52
121	2552	4.903945389882	52
121	3594	7.863127776231	52
121	4992	11.321760491819	52
121	5197	11.327954176604	52
121	6010	12.448334896685	52
121	7888	18.361005444524	52
121	8071	18.367429461334	52
121	9221	21.506713027489	52
121	9378	21.823333932734	52
121	9567	21.826020972848	52
121	9926	22.305038089812	52
121	10260	22.942928345363	52
121	11367	25.904680190493	52
121	14729	33.44144723166	52
121	14845	33.444586277672	52
121	15757	36.403127864277	52
121	17014	39.365822454952	52
121	17970	42.504492738243	52
121	18380	42.822939143066	52
121	18473	42.825478423373	52
121	18905	43.30481261543	52
121	20267	46.901959431091	52
121	20365	46.903788841667	52
121	22565	53.00408055828	52
121	23308	53.803044879305	52
121	23690	54.442067963401	52
121	23700	54.442124279472	52
121	24809	57.403671468406	52
121	25837	60.363820554129	52
121	25864	60.364493684728	52
121	26993	63.503219643971	52
121	28170	64.944605231104	52
121	29285	67.904639694479	52
121	30443	70.867038963318	52
121	31503	74.004292776346	52
121	31883	74.324187305524	52
121	32330	74.803451468861	52
121	34867	81.362812128625	52
121	36057	84.502664136639	52
121	36152	84.504519020836	52
121	36327	84.821725140382	52
121	36802	85.303139435064	52
121	37222	85.940104990976	52
121	37416	85.944397316846	52
121	38393	88.903596930753	52
121	39569	91.864749895308	52
121	41347	95.803391371915	52
121	41860	96.442348983671	52
121	44076	102.362606135117	52
121	45186	105.502989588093	52
121	45434	105.820375197225	52
121	50304	116.803874949678	52
121	52926	123.364128571771	52
121	54848	127.303681790366	52
121	55256	127.9450247282	52
121	55341	127.948693762518	52
121	56181	130.900811099536	52
121	57261	133.863757127416	52
121	58514	137.004132182459	52
121	59114	137.801042287059	52
121	60822	141.40460089646	52
121	61735	144.361060683197	52
121	62973	147.502745058387	52
121	63017	147.503377646146	52
121	63297	147.823245090273	52
121	63799	148.304029913067	52
121	63965	148.308546283585	52
121	64229	148.944653124913	52
121	65450	151.907079922931	52
121	66450	154.865012084409	52
121	67589	158.003672677173	52
121	67828	158.321249866265	52
121	68166	158.800938941772	52
121	68704	159.443318428203	52
121	68835	159.447017467612	52
121	69823	162.400898126096	52
121	72146	168.502537118533	52
121	72512	168.824755032534	52
121	72971	169.304000741375	52
121	73111	169.306238699713	52
121	73342	169.943069941174	52
121	73467	169.947023792259	52
121	74664	172.905962040854	52
121	75759	175.868560969512	52
121	76808	179.004154257306	52
121	76957	179.321236064671	52
121	77427	179.802746952279	52
121	77817	180.441609686655	52
121	78964	183.404235656778	52
121	80045	186.364362952221	52
121	81129	189.501009200375	52
121	81240	189.504881645302	52
121	83495	193.903509900498	52
121	84460	196.863281287081	52
121	85661	200.001412039536	52
121	85993	200.324504918703	52
121	86367	200.800211493401	52
121	86855	201.441461455252	52
121	87030	201.446755240877	52
121	87945	204.402059058845	52
121	88967	207.363412116717	52
121	90875	211.30457409104	52
121	91210	211.940102914707	52
121	91348	211.94491368911	52
121	92524	214.90528716288	52
121	93396	217.861086991567	52
121	94594	221.00171548668	52
121	95067	221.328880911599	52
121	95219	221.801517392473	52
121	95851	222.44491296549	52
121	96810	225.401442500751	52
121	99143	231.503929114698	52
121	99392	231.821739463184	52
121	102305	238.862279904858	52
121	102509	238.86781749838	52
121	103628	242.004026524682	52
121	104121	242.800247652473	52
121	104512	243.440387847099	52
121	105675	246.40252192723	52
121	106852	249.367336117812	52
121	107900	252.50398830962	52
121	108113	252.820320183618	52
121	108653	253.303822414296	52
121	109096	253.943380684255	52
121	110062	256.900631311519	52
121	110285	256.906766262127	52
121	111285	259.864866205919	52
121	112441	263.003905204543	52
121	112773	263.323249391521	52
121	113286	263.80468260475	52
121	114826	267.407041344169	52
121	115661	270.360796539134	52
121	116827	273.500768014139	52
121	117269	273.825073229542	52
121	117484	274.30098923942	52
121	117910	274.94182743377	52
121	118103	274.945882996885	52
121	118970	277.900607497737	52
121	119139	277.905417004318	52
121	121299	284.005012271834	52
121	121604	284.323245690102	52
121	121648	284.324502282514	52
121	122103	284.804296655338	52
121	122166	284.804862285718	52
121	123628	288.404175832861	52
121	123655	288.404669587661	52
121	124776	291.369400763688	52
121	125717	294.50119868749	52
121	126030	294.821341232852	52
121	126425	295.302749344061	52
121	127914	298.902194011044	52
121	129014	301.86388857495	52
121	130256	305.004616617258	52
121	130565	305.324465819591	52
121	130830	305.800044152813	52
121	132457	309.40400461376	52
121	135272	316.301557304323	52
121	135673	316.940326805329	52
121	136694	319.900981803296	52
121	136836	319.904606146276	52
121	139782	326.80352305336	52
121	141163	330.400389845712	52
121	141255	330.403416553801	52
121	142376	333.365370799118	52
121	143336	336.500078264225	52
121	143758	336.824137150203	52
121	145724	340.902999759388	52
121	146998	343.867369190186	52
121	148117	347.006796558873	52
121	151247	354.361570049092	52
121	152421	357.503867258114	52
121	153142	358.302467700312	52
121	153698	358.943852918331	52
121	154740	361.900848744709	52
121	154803	361.902895573593	52
121	155802	364.86137162641	52
121	155894	364.86427628152	52
121	157073	368.001395922392	52
121	157176	368.004735021732	52
121	157693	368.803038428731	52
121	158104	369.440211197966	52
121	159207	372.400811405026	52
121	160499	375.36535689016	52
121	161835	378.823520807467	52
121	162329	379.304261846216	52
121	163985	382.905833746346	52
121	164928	385.862473145756	52
121	166105	389.003583894874	52
121	166372	389.321146333203	52
121	166844	389.802296601635	52
121	167446	390.448876279131	52
121	168308	393.403687931263	52
121	169545	396.367539987506	52
121	170536	399.503084098054	52
121	170655	399.505152527955	52
121	171215	400.300042155914	52
121	171674	400.940522529037	52
121	171750	400.94301671521	52
121	173885	406.860579572047	52
121	173982	406.863468314836	52
121	175235	410.004954284544	52
121	175245	410.00502052252	52
121	175589	410.32645017234	52
121	175879	410.802569044178	52
121	176407	411.443061454046	52
121	176496	411.44613918468	52
121	177601	414.407556404097	52
121	178414	417.360982047035	52
121	179665	420.501343073036	52
121	180563	421.304207080679	52
121	180861	421.942512179822	52
121	182033	424.903533442815	52
121	182178	424.908462706584	52
121	183086	427.863449784423	52
121	184527	431.323074246743	52
121	185041	431.803298946879	52
121	186573	435.40571286362	52
121	187406	438.361069799573	52
121	188725	441.503817811321	52
121	188849	441.821891635814	52
121	189947	442.944723668824	52
121	190905	445.90196593683	52
121	191032	445.904252716136	52
121	191995	448.860311767725	52
121	193233	452.000841829512	52
121	193639	452.3247821933	52
121	194113	452.806183576437	52
121	194482	453.44233538773	52
121	194553	453.444055209455	52
121	196562	459.360158673115	52
121	197783	462.50171784709	52
121	197843	462.502730527587	52
121	198454	463.300751258377	52
121	198571	463.303288747499	52
122	52175	121	28
122	154575	361.5	28
123	52202	121.000024033356	28
123	154602	361.500024033356	28

