version 2
run CircleMobility1-0-20181219-21:45:58-33703
attr configname CircleMobility1
attr datetime 20181219-21:45:58
attr experiment CircleMobility1
attr inifile omnetpp.ini
attr iterationvars ""
attr iterationvarsf ""
attr measurement ""
attr network AODVNetwork
attr processid 33703
attr repetition 0
attr replication #0
attr resultdir results
attr runnumber 0
attr seedset 0
param *.numHosts "12 * 2"
param **.host*.mobility.typename "\"CircleMobility\""
param **.host[0..11].mobility.cx 400m
param **.host[0..11].mobility.cy 400m
param **.host[0..11].mobility.r 100m
param **.host[0..11].mobility.speed 2000mps
param **.host[1].mobility.startAngle 0deg
param **.host[2].mobility.startAngle 30deg
param **.host[3].mobility.startAngle 60deg
param **.host[4].mobility.startAngle 90deg
param **.host[5].mobility.startAngle 120deg
param **.host[6].mobility.startAngle 150deg
param **.host[7].mobility.startAngle 180deg
param **.host[8].mobility.startAngle 210deg
param **.host[9].mobility.startAngle 240deg
param **.host[10].mobility.startAngle 270deg
param **.host[11].mobility.startAngle 300deg
param **.host[0].mobility.startAngle 330deg
param **.host[12..23].mobility.cx 200m
param **.host[12..23].mobility.cy 200m
param **.host[12..23].mobility.r 130m
param **.host[12..23].mobility.speed -2000mps
param **.host[12].mobility.startAngle 0deg
param **.host[13].mobility.startAngle 30deg
param **.host[14].mobility.startAngle 90deg
param **.host[15].mobility.startAngle 120deg
param **.host[16].mobility.startAngle 150deg
param **.host[17].mobility.startAngle 180deg
param **.host[18].mobility.startAngle 210deg
param **.host[19].mobility.startAngle 240deg
param **.host[20].mobility.startAngle 270deg
param **.host[21].mobility.startAngle 300deg
param **.host[22].mobility.startAngle 330deg
param **.host[23].mobility.startAngle 60deg
param *.numHosts 10
param **.wlan[*].typename "\"AckingWirelessInterface\""
param **.wlan[*].bitrate 20Mbps
param **.wlan[*].mac.headerLength 20B
param **.wlan[*].radio.typename "\"UnitDiskRadio\""
param **.wlan[*].radio.transmitter.headerLength 96b
param **.wlan[*].radio.transmitter.communicationRange 40m
param **.wlan[*].radio.transmitter.interferenceRange 40m
param **.wlan[*].radio.transmitter.detectionRange 40m
param **.wlan[*].radio.receiver.ignoreInterference true
param **.aodv.activeRouteTimeout 1s
param **.radioMedium.rangeFilter "\"communicationRange\""
param **.refillPeriod 1s
param **.radioMedium.mediumLimitCache.communicationRange 40m
param **.radioMedium.neighborCache.typename "\"NeighborListNeighborCache\""
param **.radioMedium.neighborCache.range 40m
param **.constraintAreaMinX 0m
param **.constraintAreaMinY 0m
param **.constraintAreaMaxX 600m
param **.constraintAreaMaxY 600m
param **.constraintAreaMinZ 0m
param **.constraintAreaMaxZ 0m
param **.updateInterval 0.01s
param **.wlan[*].mgmt.frameCapacity 10
param **.wlan[*].mac.retryLimit 7
param **.hasStatus true
param *.hasVisualizer true
param *.visualizer.mobilityVisualizer.moduleFilter "\"**.mobility\""
param *.visualizer.mobilityVisualizer.displayMovementTrails false
param *.visualizer.mediumVisualizer.displayCommunicationRanges true
param *.visualizer.mediumVisualizer.displayInterferenceRanges false
param *.visualizer.mediumVisualizer.displaySignals false
param *.configurator.addStaticRoutes false
param *.host*.numApps 1
param *.host*.app[0].typename "\"UdpBasicApp\""
param *.host*.app[0].localPort 100
param *.host*.app[0].sendInterval 0.5s
param *.host*.app[0].messageLength 1000B
param **.hasIpv4 true
param **.hasIpv6 false
param **.hasGn false
param *.host*.app[0].destAddresses "\"host[*]\""
param *.host*.app[0].destPort 1000

vector 0 AODVNetwork.host[0].wlan[0].queue queueLength:vector ETV
attr interpolationmode sample-hold
attr title "queue length, vector"
vector 1 AODVNetwork.host[0].wlan[0].radio radioMode:vector ETV
attr interpolationmode sample-hold
attr source radioModeChanged
attr title "Radio mode, vector"
vector 2 AODVNetwork.host[1].wlan[0].queue queueLength:vector ETV
attr interpolationmode sample-hold
attr title "queue length, vector"
vector 3 AODVNetwork.host[1].wlan[0].radio radioMode:vector ETV
attr interpolationmode sample-hold
attr source radioModeChanged
attr title "Radio mode, vector"
vector 4 AODVNetwork.host[2].wlan[0].queue queueLength:vector ETV
attr interpolationmode sample-hold
attr title "queue length, vector"
vector 5 AODVNetwork.host[2].wlan[0].radio radioMode:vector ETV
attr interpolationmode sample-hold
attr source radioModeChanged
attr title "Radio mode, vector"
vector 6 AODVNetwork.host[3].wlan[0].queue queueLength:vector ETV
attr interpolationmode sample-hold
attr title "queue length, vector"
vector 7 AODVNetwork.host[3].wlan[0].radio radioMode:vector ETV
attr interpolationmode sample-hold
attr source radioModeChanged
attr title "Radio mode, vector"
vector 8 AODVNetwork.host[4].wlan[0].queue queueLength:vector ETV
attr interpolationmode sample-hold
attr title "queue length, vector"
vector 9 AODVNetwork.host[4].wlan[0].radio radioMode:vector ETV
attr interpolationmode sample-hold
attr source radioModeChanged
attr title "Radio mode, vector"
vector 10 AODVNetwork.host[5].wlan[0].queue queueLength:vector ETV
attr interpolationmode sample-hold
attr title "queue length, vector"
vector 11 AODVNetwork.host[5].wlan[0].radio radioMode:vector ETV
attr interpolationmode sample-hold
attr source radioModeChanged
attr title "Radio mode, vector"
vector 12 AODVNetwork.host[6].wlan[0].queue queueLength:vector ETV
attr interpolationmode sample-hold
attr title "queue length, vector"
vector 13 AODVNetwork.host[6].wlan[0].radio radioMode:vector ETV
attr interpolationmode sample-hold
attr source radioModeChanged
attr title "Radio mode, vector"
vector 14 AODVNetwork.host[7].wlan[0].queue queueLength:vector ETV
attr interpolationmode sample-hold
attr title "queue length, vector"
vector 15 AODVNetwork.host[7].wlan[0].radio radioMode:vector ETV
attr interpolationmode sample-hold
attr source radioModeChanged
attr title "Radio mode, vector"
vector 16 AODVNetwork.host[8].wlan[0].queue queueLength:vector ETV
attr interpolationmode sample-hold
attr title "queue length, vector"
vector 17 AODVNetwork.host[8].wlan[0].radio radioMode:vector ETV
attr interpolationmode sample-hold
attr source radioModeChanged
attr title "Radio mode, vector"
vector 18 AODVNetwork.host[9].wlan[0].queue queueLength:vector ETV
attr interpolationmode sample-hold
attr title "queue length, vector"
vector 19 AODVNetwork.host[9].wlan[0].radio radioMode:vector ETV
attr interpolationmode sample-hold
attr source radioModeChanged
attr title "Radio mode, vector"
vector 20 AODVNetwork.host[10].wlan[0].queue queueLength:vector ETV
attr interpolationmode sample-hold
attr title "queue length, vector"
vector 21 AODVNetwork.host[10].wlan[0].radio radioMode:vector ETV
attr interpolationmode sample-hold
attr source radioModeChanged
attr title "Radio mode, vector"
vector 22 AODVNetwork.host[11].wlan[0].queue queueLength:vector ETV
attr interpolationmode sample-hold
attr title "queue length, vector"
vector 23 AODVNetwork.host[11].wlan[0].radio radioMode:vector ETV
attr interpolationmode sample-hold
attr source radioModeChanged
attr title "Radio mode, vector"
vector 24 AODVNetwork.host[12].wlan[0].queue queueLength:vector ETV
attr interpolationmode sample-hold
attr title "queue length, vector"
vector 25 AODVNetwork.host[12].wlan[0].radio radioMode:vector ETV
attr interpolationmode sample-hold
attr source radioModeChanged
attr title "Radio mode, vector"
vector 26 AODVNetwork.host[13].wlan[0].queue queueLength:vector ETV
attr interpolationmode sample-hold
attr title "queue length, vector"
vector 27 AODVNetwork.host[13].wlan[0].radio radioMode:vector ETV
attr interpolationmode sample-hold
attr source radioModeChanged
attr title "Radio mode, vector"
vector 28 AODVNetwork.host[14].wlan[0].queue queueLength:vector ETV
attr interpolationmode sample-hold
attr title "queue length, vector"
vector 29 AODVNetwork.host[14].wlan[0].radio radioMode:vector ETV
attr interpolationmode sample-hold
attr source radioModeChanged
attr title "Radio mode, vector"
vector 30 AODVNetwork.host[15].wlan[0].queue queueLength:vector ETV
attr interpolationmode sample-hold
attr title "queue length, vector"
vector 31 AODVNetwork.host[15].wlan[0].radio radioMode:vector ETV
attr interpolationmode sample-hold
attr source radioModeChanged
attr title "Radio mode, vector"
vector 32 AODVNetwork.host[16].wlan[0].queue queueLength:vector ETV
attr interpolationmode sample-hold
attr title "queue length, vector"
vector 33 AODVNetwork.host[16].wlan[0].radio radioMode:vector ETV
attr interpolationmode sample-hold
attr source radioModeChanged
attr title "Radio mode, vector"
vector 34 AODVNetwork.host[17].wlan[0].queue queueLength:vector ETV
attr interpolationmode sample-hold
attr title "queue length, vector"
vector 35 AODVNetwork.host[17].wlan[0].radio radioMode:vector ETV
attr interpolationmode sample-hold
attr source radioModeChanged
attr title "Radio mode, vector"
vector 36 AODVNetwork.host[18].wlan[0].queue queueLength:vector ETV
attr interpolationmode sample-hold
attr title "queue length, vector"
vector 37 AODVNetwork.host[18].wlan[0].radio radioMode:vector ETV
attr interpolationmode sample-hold
attr source radioModeChanged
attr title "Radio mode, vector"
vector 38 AODVNetwork.host[19].wlan[0].queue queueLength:vector ETV
attr interpolationmode sample-hold
attr title "queue length, vector"
vector 39 AODVNetwork.host[19].wlan[0].radio radioMode:vector ETV
attr interpolationmode sample-hold
attr source radioModeChanged
attr title "Radio mode, vector"
vector 40 AODVNetwork.host[20].wlan[0].queue queueLength:vector ETV
attr interpolationmode sample-hold
attr title "queue length, vector"
vector 41 AODVNetwork.host[20].wlan[0].radio radioMode:vector ETV
attr interpolationmode sample-hold
attr source radioModeChanged
attr title "Radio mode, vector"
vector 42 AODVNetwork.host[21].wlan[0].queue queueLength:vector ETV
attr interpolationmode sample-hold
attr title "queue length, vector"
vector 43 AODVNetwork.host[21].wlan[0].radio radioMode:vector ETV
attr interpolationmode sample-hold
attr source radioModeChanged
attr title "Radio mode, vector"
vector 44 AODVNetwork.host[22].wlan[0].queue queueLength:vector ETV
attr interpolationmode sample-hold
attr title "queue length, vector"
vector 45 AODVNetwork.host[22].wlan[0].radio radioMode:vector ETV
attr interpolationmode sample-hold
attr source radioModeChanged
attr title "Radio mode, vector"
vector 46 AODVNetwork.host[23].wlan[0].queue queueLength:vector ETV
attr interpolationmode sample-hold
attr title "queue length, vector"
vector 47 AODVNetwork.host[23].wlan[0].radio radioMode:vector ETV
attr interpolationmode sample-hold
attr source radioModeChanged
attr title "Radio mode, vector"
vector 48 AODVNetwork.host[0].wlan[0].radio receptionState:vector ETV
attr interpolationmode sample-hold
attr source receptionStateChanged
attr title "Radio reception state, vector"
vector 49 AODVNetwork.host[0].wlan[0].radio transmissionState:vector ETV
attr interpolationmode sample-hold
attr source transmissionStateChanged
attr title "Radio transmission state, vector"
vector 50 AODVNetwork.host[1].wlan[0].radio receptionState:vector ETV
attr interpolationmode sample-hold
attr source receptionStateChanged
attr title "Radio reception state, vector"
vector 51 AODVNetwork.host[1].wlan[0].radio transmissionState:vector ETV
attr interpolationmode sample-hold
attr source transmissionStateChanged
attr title "Radio transmission state, vector"
vector 52 AODVNetwork.host[2].wlan[0].radio receptionState:vector ETV
attr interpolationmode sample-hold
attr source receptionStateChanged
attr title "Radio reception state, vector"
vector 53 AODVNetwork.host[2].wlan[0].radio transmissionState:vector ETV
attr interpolationmode sample-hold
attr source transmissionStateChanged
attr title "Radio transmission state, vector"
vector 54 AODVNetwork.host[3].wlan[0].radio receptionState:vector ETV
attr interpolationmode sample-hold
attr source receptionStateChanged
attr title "Radio reception state, vector"
vector 55 AODVNetwork.host[3].wlan[0].radio transmissionState:vector ETV
attr interpolationmode sample-hold
attr source transmissionStateChanged
attr title "Radio transmission state, vector"
vector 56 AODVNetwork.host[4].wlan[0].radio receptionState:vector ETV
attr interpolationmode sample-hold
attr source receptionStateChanged
attr title "Radio reception state, vector"
vector 57 AODVNetwork.host[4].wlan[0].radio transmissionState:vector ETV
attr interpolationmode sample-hold
attr source transmissionStateChanged
attr title "Radio transmission state, vector"
vector 58 AODVNetwork.host[5].wlan[0].radio receptionState:vector ETV
attr interpolationmode sample-hold
attr source receptionStateChanged
attr title "Radio reception state, vector"
vector 59 AODVNetwork.host[5].wlan[0].radio transmissionState:vector ETV
attr interpolationmode sample-hold
attr source transmissionStateChanged
attr title "Radio transmission state, vector"
vector 60 AODVNetwork.host[6].wlan[0].radio receptionState:vector ETV
attr interpolationmode sample-hold
attr source receptionStateChanged
attr title "Radio reception state, vector"
vector 61 AODVNetwork.host[6].wlan[0].radio transmissionState:vector ETV
attr interpolationmode sample-hold
attr source transmissionStateChanged
attr title "Radio transmission state, vector"
vector 62 AODVNetwork.host[7].wlan[0].radio receptionState:vector ETV
attr interpolationmode sample-hold
attr source receptionStateChanged
attr title "Radio reception state, vector"
vector 63 AODVNetwork.host[7].wlan[0].radio transmissionState:vector ETV
attr interpolationmode sample-hold
attr source transmissionStateChanged
attr title "Radio transmission state, vector"
vector 64 AODVNetwork.host[8].wlan[0].radio receptionState:vector ETV
attr interpolationmode sample-hold
attr source receptionStateChanged
attr title "Radio reception state, vector"
vector 65 AODVNetwork.host[8].wlan[0].radio transmissionState:vector ETV
attr interpolationmode sample-hold
attr source transmissionStateChanged
attr title "Radio transmission state, vector"
vector 66 AODVNetwork.host[9].wlan[0].radio receptionState:vector ETV
attr interpolationmode sample-hold
attr source receptionStateChanged
attr title "Radio reception state, vector"
vector 67 AODVNetwork.host[9].wlan[0].radio transmissionState:vector ETV
attr interpolationmode sample-hold
attr source transmissionStateChanged
attr title "Radio transmission state, vector"
vector 68 AODVNetwork.host[10].wlan[0].radio receptionState:vector ETV
attr interpolationmode sample-hold
attr source receptionStateChanged
attr title "Radio reception state, vector"
vector 69 AODVNetwork.host[10].wlan[0].radio transmissionState:vector ETV
attr interpolationmode sample-hold
attr source transmissionStateChanged
attr title "Radio transmission state, vector"
vector 70 AODVNetwork.host[11].wlan[0].radio receptionState:vector ETV
attr interpolationmode sample-hold
attr source receptionStateChanged
attr title "Radio reception state, vector"
vector 71 AODVNetwork.host[11].wlan[0].radio transmissionState:vector ETV
attr interpolationmode sample-hold
attr source transmissionStateChanged
attr title "Radio transmission state, vector"
vector 72 AODVNetwork.host[12].wlan[0].radio receptionState:vector ETV
attr interpolationmode sample-hold
attr source receptionStateChanged
attr title "Radio reception state, vector"
vector 73 AODVNetwork.host[12].wlan[0].radio transmissionState:vector ETV
attr interpolationmode sample-hold
attr source transmissionStateChanged
attr title "Radio transmission state, vector"
vector 74 AODVNetwork.host[13].wlan[0].radio receptionState:vector ETV
attr interpolationmode sample-hold
attr source receptionStateChanged
attr title "Radio reception state, vector"
vector 75 AODVNetwork.host[13].wlan[0].radio transmissionState:vector ETV
attr interpolationmode sample-hold
attr source transmissionStateChanged
attr title "Radio transmission state, vector"
vector 76 AODVNetwork.host[14].wlan[0].radio receptionState:vector ETV
attr interpolationmode sample-hold
attr source receptionStateChanged
attr title "Radio reception state, vector"
vector 77 AODVNetwork.host[14].wlan[0].radio transmissionState:vector ETV
attr interpolationmode sample-hold
attr source transmissionStateChanged
attr title "Radio transmission state, vector"
vector 78 AODVNetwork.host[15].wlan[0].radio receptionState:vector ETV
attr interpolationmode sample-hold
attr source receptionStateChanged
attr title "Radio reception state, vector"
vector 79 AODVNetwork.host[15].wlan[0].radio transmissionState:vector ETV
attr interpolationmode sample-hold
attr source transmissionStateChanged
attr title "Radio transmission state, vector"
vector 80 AODVNetwork.host[16].wlan[0].radio receptionState:vector ETV
attr interpolationmode sample-hold
attr source receptionStateChanged
attr title "Radio reception state, vector"
vector 81 AODVNetwork.host[16].wlan[0].radio transmissionState:vector ETV
attr interpolationmode sample-hold
attr source transmissionStateChanged
attr title "Radio transmission state, vector"
vector 82 AODVNetwork.host[17].wlan[0].radio receptionState:vector ETV
attr interpolationmode sample-hold
attr source receptionStateChanged
attr title "Radio reception state, vector"
vector 83 AODVNetwork.host[17].wlan[0].radio transmissionState:vector ETV
attr interpolationmode sample-hold
attr source transmissionStateChanged
attr title "Radio transmission state, vector"
vector 84 AODVNetwork.host[18].wlan[0].radio receptionState:vector ETV
attr interpolationmode sample-hold
attr source receptionStateChanged
attr title "Radio reception state, vector"
vector 85 AODVNetwork.host[18].wlan[0].radio transmissionState:vector ETV
attr interpolationmode sample-hold
attr source transmissionStateChanged
attr title "Radio transmission state, vector"
vector 86 AODVNetwork.host[19].wlan[0].radio receptionState:vector ETV
attr interpolationmode sample-hold
attr source receptionStateChanged
attr title "Radio reception state, vector"
vector 87 AODVNetwork.host[19].wlan[0].radio transmissionState:vector ETV
attr interpolationmode sample-hold
attr source transmissionStateChanged
attr title "Radio transmission state, vector"
vector 88 AODVNetwork.host[20].wlan[0].radio receptionState:vector ETV
attr interpolationmode sample-hold
attr source receptionStateChanged
attr title "Radio reception state, vector"
vector 89 AODVNetwork.host[20].wlan[0].radio transmissionState:vector ETV
attr interpolationmode sample-hold
attr source transmissionStateChanged
attr title "Radio transmission state, vector"
vector 90 AODVNetwork.host[21].wlan[0].radio receptionState:vector ETV
attr interpolationmode sample-hold
attr source receptionStateChanged
attr title "Radio reception state, vector"
vector 91 AODVNetwork.host[21].wlan[0].radio transmissionState:vector ETV
attr interpolationmode sample-hold
attr source transmissionStateChanged
attr title "Radio transmission state, vector"
vector 92 AODVNetwork.host[22].wlan[0].radio receptionState:vector ETV
attr interpolationmode sample-hold
attr source receptionStateChanged
attr title "Radio reception state, vector"
vector 93 AODVNetwork.host[22].wlan[0].radio transmissionState:vector ETV
attr interpolationmode sample-hold
attr source transmissionStateChanged
attr title "Radio transmission state, vector"
vector 94 AODVNetwork.host[23].wlan[0].radio receptionState:vector ETV
attr interpolationmode sample-hold
attr source receptionStateChanged
attr title "Radio reception state, vector"
vector 95 AODVNetwork.host[23].wlan[0].radio transmissionState:vector ETV
attr interpolationmode sample-hold
attr source transmissionStateChanged
attr title "Radio transmission state, vector"
vector 96 AODVNetwork.host[0].app[0] packetSent:vector(packetBytes) ETV
attr interpolationmode none
attr source packetSent
attr title "packets sent, vector(packetBytes)"
vector 97 AODVNetwork.host[1].app[0] packetSent:vector(packetBytes) ETV
attr interpolationmode none
attr source packetSent
attr title "packets sent, vector(packetBytes)"
vector 98 AODVNetwork.host[2].app[0] packetSent:vector(packetBytes) ETV
attr interpolationmode none
attr source packetSent
attr title "packets sent, vector(packetBytes)"
vector 99 AODVNetwork.host[3].app[0] packetSent:vector(packetBytes) ETV
attr interpolationmode none
attr source packetSent
attr title "packets sent, vector(packetBytes)"
vector 100 AODVNetwork.host[4].app[0] packetSent:vector(packetBytes) ETV
attr interpolationmode none
attr source packetSent
attr title "packets sent, vector(packetBytes)"
vector 101 AODVNetwork.host[5].app[0] packetSent:vector(packetBytes) ETV
attr interpolationmode none
attr source packetSent
attr title "packets sent, vector(packetBytes)"
vector 102 AODVNetwork.host[6].app[0] packetSent:vector(packetBytes) ETV
attr interpolationmode none
attr source packetSent
attr title "packets sent, vector(packetBytes)"
vector 103 AODVNetwork.host[7].app[0] packetSent:vector(packetBytes) ETV
attr interpolationmode none
attr source packetSent
attr title "packets sent, vector(packetBytes)"
vector 104 AODVNetwork.host[8].app[0] packetSent:vector(packetBytes) ETV
attr interpolationmode none
attr source packetSent
attr title "packets sent, vector(packetBytes)"
vector 105 AODVNetwork.host[9].app[0] packetSent:vector(packetBytes) ETV
attr interpolationmode none
attr source packetSent
attr title "packets sent, vector(packetBytes)"
vector 106 AODVNetwork.host[10].app[0] packetSent:vector(packetBytes) ETV
attr interpolationmode none
attr source packetSent
attr title "packets sent, vector(packetBytes)"
vector 107 AODVNetwork.host[11].app[0] packetSent:vector(packetBytes) ETV
attr interpolationmode none
attr source packetSent
attr title "packets sent, vector(packetBytes)"
vector 108 AODVNetwork.host[12].app[0] packetSent:vector(packetBytes) ETV
attr interpolationmode none
attr source packetSent
attr title "packets sent, vector(packetBytes)"
vector 109 AODVNetwork.host[13].app[0] packetSent:vector(packetBytes) ETV
attr interpolationmode none
attr source packetSent
attr title "packets sent, vector(packetBytes)"
vector 110 AODVNetwork.host[14].app[0] packetSent:vector(packetBytes) ETV
attr interpolationmode none
attr source packetSent
attr title "packets sent, vector(packetBytes)"
vector 111 AODVNetwork.host[15].app[0] packetSent:vector(packetBytes) ETV
attr interpolationmode none
attr source packetSent
attr title "packets sent, vector(packetBytes)"
vector 112 AODVNetwork.host[16].app[0] packetSent:vector(packetBytes) ETV
attr interpolationmode none
attr source packetSent
attr title "packets sent, vector(packetBytes)"
vector 113 AODVNetwork.host[17].app[0] packetSent:vector(packetBytes) ETV
attr interpolationmode none
attr source packetSent
attr title "packets sent, vector(packetBytes)"
vector 114 AODVNetwork.host[18].app[0] packetSent:vector(packetBytes) ETV
attr interpolationmode none
attr source packetSent
attr title "packets sent, vector(packetBytes)"
vector 115 AODVNetwork.host[19].app[0] packetSent:vector(packetBytes) ETV
attr interpolationmode none
attr source packetSent
attr title "packets sent, vector(packetBytes)"
vector 116 AODVNetwork.host[20].app[0] packetSent:vector(packetBytes) ETV
attr interpolationmode none
attr source packetSent
attr title "packets sent, vector(packetBytes)"
vector 117 AODVNetwork.host[21].app[0] packetSent:vector(packetBytes) ETV
attr interpolationmode none
attr source packetSent
attr title "packets sent, vector(packetBytes)"
vector 118 AODVNetwork.host[22].app[0] packetSent:vector(packetBytes) ETV
attr interpolationmode none
attr source packetSent
attr title "packets sent, vector(packetBytes)"
vector 119 AODVNetwork.host[23].app[0] packetSent:vector(packetBytes) ETV
attr interpolationmode none
attr source packetSent
attr title "packets sent, vector(packetBytes)"
vector 120 AODVNetwork.host[0].udp packetSent:vector(packetBytes) ETV
attr interpolationmode none
attr source packetSent
attr title "packets sent, vector(packetBytes)"
vector 121 AODVNetwork.host[1].udp packetSent:vector(packetBytes) ETV
attr interpolationmode none
attr source packetSent
attr title "packets sent, vector(packetBytes)"
vector 122 AODVNetwork.host[2].udp packetSent:vector(packetBytes) ETV
attr interpolationmode none
attr source packetSent
attr title "packets sent, vector(packetBytes)"
vector 123 AODVNetwork.host[3].udp packetSent:vector(packetBytes) ETV
attr interpolationmode none
attr source packetSent
attr title "packets sent, vector(packetBytes)"
vector 124 AODVNetwork.host[4].udp packetSent:vector(packetBytes) ETV
attr interpolationmode none
attr source packetSent
attr title "packets sent, vector(packetBytes)"
vector 125 AODVNetwork.host[5].udp packetSent:vector(packetBytes) ETV
attr interpolationmode none
attr source packetSent
attr title "packets sent, vector(packetBytes)"
vector 126 AODVNetwork.host[6].udp packetSent:vector(packetBytes) ETV
attr interpolationmode none
attr source packetSent
attr title "packets sent, vector(packetBytes)"
vector 127 AODVNetwork.host[7].udp packetSent:vector(packetBytes) ETV
attr interpolationmode none
attr source packetSent
attr title "packets sent, vector(packetBytes)"
vector 128 AODVNetwork.host[8].udp packetSent:vector(packetBytes) ETV
attr interpolationmode none
attr source packetSent
attr title "packets sent, vector(packetBytes)"
vector 129 AODVNetwork.host[9].udp packetSent:vector(packetBytes) ETV
attr interpolationmode none
attr source packetSent
attr title "packets sent, vector(packetBytes)"
vector 130 AODVNetwork.host[10].udp packetSent:vector(packetBytes) ETV
attr interpolationmode none
attr source packetSent
attr title "packets sent, vector(packetBytes)"
vector 131 AODVNetwork.host[11].udp packetSent:vector(packetBytes) ETV
attr interpolationmode none
attr source packetSent
attr title "packets sent, vector(packetBytes)"
vector 132 AODVNetwork.host[12].udp packetSent:vector(packetBytes) ETV
attr interpolationmode none
attr source packetSent
attr title "packets sent, vector(packetBytes)"
vector 133 AODVNetwork.host[13].udp packetSent:vector(packetBytes) ETV
attr interpolationmode none
attr source packetSent
attr title "packets sent, vector(packetBytes)"
vector 134 AODVNetwork.host[14].udp packetSent:vector(packetBytes) ETV
attr interpolationmode none
attr source packetSent
attr title "packets sent, vector(packetBytes)"
vector 135 AODVNetwork.host[15].udp packetSent:vector(packetBytes) ETV
attr interpolationmode none
attr source packetSent
attr title "packets sent, vector(packetBytes)"
vector 136 AODVNetwork.host[16].udp packetSent:vector(packetBytes) ETV
attr interpolationmode none
attr source packetSent
attr title "packets sent, vector(packetBytes)"
vector 137 AODVNetwork.host[17].udp packetSent:vector(packetBytes) ETV
attr interpolationmode none
attr source packetSent
attr title "packets sent, vector(packetBytes)"
vector 138 AODVNetwork.host[18].udp packetSent:vector(packetBytes) ETV
attr interpolationmode none
attr source packetSent
attr title "packets sent, vector(packetBytes)"
vector 139 AODVNetwork.host[19].udp packetSent:vector(packetBytes) ETV
attr interpolationmode none
attr source packetSent
attr title "packets sent, vector(packetBytes)"
vector 140 AODVNetwork.host[20].udp packetSent:vector(packetBytes) ETV
attr interpolationmode none
attr source packetSent
attr title "packets sent, vector(packetBytes)"
vector 141 AODVNetwork.host[21].udp packetSent:vector(packetBytes) ETV
attr interpolationmode none
attr source packetSent
attr title "packets sent, vector(packetBytes)"
vector 142 AODVNetwork.host[22].udp packetSent:vector(packetBytes) ETV
attr interpolationmode none
attr source packetSent
attr title "packets sent, vector(packetBytes)"
vector 143 AODVNetwork.host[23].udp packetSent:vector(packetBytes) ETV
attr interpolationmode none
attr source packetSent
attr title "packets sent, vector(packetBytes)"
vector 144 AODVNetwork.host[0].lo[0].lo rcvdPkFromHl:vector(packetBytes) ETV
attr interpolationmode none
attr source packetReceivedFromUpper
attr title "packets received from higher layer, vector(packetBytes)"
vector 145 AODVNetwork.host[0].lo[0].lo passedUpPk:vector(packetBytes) ETV
attr interpolationmode none
attr source packetSentToUpper
attr title "packets passed to higher layer, vector(packetBytes)"
vector 146 AODVNetwork.host[0].udp packetReceived:vector(packetBytes) ETV
attr interpolationmode none
attr source packetReceived
attr title "packets received, vector(packetBytes)"
vector 147 AODVNetwork.host[0].udp droppedPkWrongPort:vector(count) ETV
attr interpolationmode none
attr source packetDropReasonIsNoPortFound(packetDropped)
attr title "packets dropped (wrong port), vector(count)"
vector 148 AODVNetwork.host[9].wlan[0].queue packetReceived:vector(packetBytes) ETV
attr interpolationmode none
attr title "received packets, vector(packetBytes)"
vector 149 AODVNetwork.host[9].wlan[0].queue queueingTime:vector ETV
attr interpolationmode none
attr title "queueing time, vector"
vector 150 AODVNetwork.host[9].wlan[0].mac rcvdPkFromHl:vector(packetBytes) ETV
attr interpolationmode none
attr source packetReceivedFromUpper
attr title "packets received from higher layer, vector(packetBytes)"
vector 151 AODVNetwork.host[9].wlan[0].mac sentDownPk:vector(packetBytes) ETV
attr interpolationmode none
attr source packetSentToLower
attr title "packets sent to lower layer, vector(packetBytes)"
vector 152 AODVNetwork.host[5].wlan[0].queue packetReceived:vector(packetBytes) ETV
attr interpolationmode none
attr title "received packets, vector(packetBytes)"
vector 153 AODVNetwork.host[5].wlan[0].queue queueingTime:vector ETV
attr interpolationmode none
attr title "queueing time, vector"
vector 154 AODVNetwork.host[5].wlan[0].mac rcvdPkFromHl:vector(packetBytes) ETV
attr interpolationmode none
attr source packetReceivedFromUpper
attr title "packets received from higher layer, vector(packetBytes)"
vector 155 AODVNetwork.host[5].wlan[0].mac sentDownPk:vector(packetBytes) ETV
attr interpolationmode none
attr source packetSentToLower
attr title "packets sent to lower layer, vector(packetBytes)"
vector 156 AODVNetwork.host[7].wlan[0].queue packetReceived:vector(packetBytes) ETV
attr interpolationmode none
attr title "received packets, vector(packetBytes)"
vector 157 AODVNetwork.host[7].wlan[0].queue queueingTime:vector ETV
attr interpolationmode none
attr title "queueing time, vector"
vector 158 AODVNetwork.host[7].wlan[0].mac rcvdPkFromHl:vector(packetBytes) ETV
attr interpolationmode none
attr source packetReceivedFromUpper
attr title "packets received from higher layer, vector(packetBytes)"
vector 159 AODVNetwork.host[7].wlan[0].mac sentDownPk:vector(packetBytes) ETV
attr interpolationmode none
attr source packetSentToLower
attr title "packets sent to lower layer, vector(packetBytes)"
vector 160 AODVNetwork.host[14].wlan[0].queue packetReceived:vector(packetBytes) ETV
attr interpolationmode none
attr title "received packets, vector(packetBytes)"
vector 161 AODVNetwork.host[14].wlan[0].queue queueingTime:vector ETV
attr interpolationmode none
attr title "queueing time, vector"
vector 162 AODVNetwork.host[14].wlan[0].mac rcvdPkFromHl:vector(packetBytes) ETV
attr interpolationmode none
attr source packetReceivedFromUpper
attr title "packets received from higher layer, vector(packetBytes)"
vector 163 AODVNetwork.host[14].wlan[0].mac sentDownPk:vector(packetBytes) ETV
attr interpolationmode none
attr source packetSentToLower
attr title "packets sent to lower layer, vector(packetBytes)"
vector 164 AODVNetwork.host[6].wlan[0].queue packetReceived:vector(packetBytes) ETV
attr interpolationmode none
attr title "received packets, vector(packetBytes)"
vector 165 AODVNetwork.host[6].wlan[0].queue queueingTime:vector ETV
attr interpolationmode none
attr title "queueing time, vector"
vector 166 AODVNetwork.host[6].wlan[0].mac rcvdPkFromHl:vector(packetBytes) ETV
attr interpolationmode none
attr source packetReceivedFromUpper
attr title "packets received from higher layer, vector(packetBytes)"
vector 167 AODVNetwork.host[6].wlan[0].mac sentDownPk:vector(packetBytes) ETV
attr interpolationmode none
attr source packetSentToLower
attr title "packets sent to lower layer, vector(packetBytes)"
vector 168 AODVNetwork.host[10].wlan[0].queue packetReceived:vector(packetBytes) ETV
attr interpolationmode none
attr title "received packets, vector(packetBytes)"
vector 169 AODVNetwork.host[10].wlan[0].queue queueingTime:vector ETV
attr interpolationmode none
attr title "queueing time, vector"
vector 170 AODVNetwork.host[10].wlan[0].mac rcvdPkFromHl:vector(packetBytes) ETV
attr interpolationmode none
attr source packetReceivedFromUpper
attr title "packets received from higher layer, vector(packetBytes)"
vector 171 AODVNetwork.host[10].wlan[0].mac sentDownPk:vector(packetBytes) ETV
attr interpolationmode none
attr source packetSentToLower
attr title "packets sent to lower layer, vector(packetBytes)"
vector 172 AODVNetwork.host[2].wlan[0].queue packetReceived:vector(packetBytes) ETV
attr interpolationmode none
attr title "received packets, vector(packetBytes)"
vector 173 AODVNetwork.host[2].wlan[0].queue queueingTime:vector ETV
attr interpolationmode none
attr title "queueing time, vector"
vector 174 AODVNetwork.host[2].wlan[0].mac rcvdPkFromHl:vector(packetBytes) ETV
attr interpolationmode none
attr source packetReceivedFromUpper
attr title "packets received from higher layer, vector(packetBytes)"
vector 175 AODVNetwork.host[2].wlan[0].mac sentDownPk:vector(packetBytes) ETV
attr interpolationmode none
attr source packetSentToLower
attr title "packets sent to lower layer, vector(packetBytes)"
vector 176 AODVNetwork.host[21].wlan[0].queue packetReceived:vector(packetBytes) ETV
attr interpolationmode none
attr title "received packets, vector(packetBytes)"
vector 177 AODVNetwork.host[21].wlan[0].queue queueingTime:vector ETV
attr interpolationmode none
attr title "queueing time, vector"
vector 178 AODVNetwork.host[21].wlan[0].mac rcvdPkFromHl:vector(packetBytes) ETV
attr interpolationmode none
attr source packetReceivedFromUpper
attr title "packets received from higher layer, vector(packetBytes)"
vector 179 AODVNetwork.host[21].wlan[0].mac sentDownPk:vector(packetBytes) ETV
attr interpolationmode none
attr source packetSentToLower
attr title "packets sent to lower layer, vector(packetBytes)"
vector 180 AODVNetwork.host[18].wlan[0].queue packetReceived:vector(packetBytes) ETV
attr interpolationmode none
attr title "received packets, vector(packetBytes)"
vector 181 AODVNetwork.host[18].wlan[0].queue queueingTime:vector ETV
attr interpolationmode none
attr title "queueing time, vector"
vector 182 AODVNetwork.host[18].wlan[0].mac rcvdPkFromHl:vector(packetBytes) ETV
attr interpolationmode none
attr source packetReceivedFromUpper
attr title "packets received from higher layer, vector(packetBytes)"
vector 183 AODVNetwork.host[18].wlan[0].mac sentDownPk:vector(packetBytes) ETV
attr interpolationmode none
attr source packetSentToLower
attr title "packets sent to lower layer, vector(packetBytes)"
vector 184 AODVNetwork.host[22].wlan[0].queue packetReceived:vector(packetBytes) ETV
attr interpolationmode none
attr title "received packets, vector(packetBytes)"
vector 185 AODVNetwork.host[22].wlan[0].queue queueingTime:vector ETV
attr interpolationmode none
attr title "queueing time, vector"
vector 186 AODVNetwork.host[22].wlan[0].mac rcvdPkFromHl:vector(packetBytes) ETV
attr interpolationmode none
attr source packetReceivedFromUpper
attr title "packets received from higher layer, vector(packetBytes)"
vector 187 AODVNetwork.host[22].wlan[0].mac sentDownPk:vector(packetBytes) ETV
attr interpolationmode none
attr source packetSentToLower
attr title "packets sent to lower layer, vector(packetBytes)"
vector 188 AODVNetwork.host[1].wlan[0].queue packetReceived:vector(packetBytes) ETV
attr interpolationmode none
attr title "received packets, vector(packetBytes)"
vector 189 AODVNetwork.host[1].wlan[0].queue queueingTime:vector ETV
attr interpolationmode none
attr title "queueing time, vector"
vector 190 AODVNetwork.host[1].wlan[0].mac rcvdPkFromHl:vector(packetBytes) ETV
attr interpolationmode none
attr source packetReceivedFromUpper
attr title "packets received from higher layer, vector(packetBytes)"
vector 191 AODVNetwork.host[1].wlan[0].mac sentDownPk:vector(packetBytes) ETV
attr interpolationmode none
attr source packetSentToLower
attr title "packets sent to lower layer, vector(packetBytes)"
vector 192 AODVNetwork.host[8].wlan[0].queue packetReceived:vector(packetBytes) ETV
attr interpolationmode none
attr title "received packets, vector(packetBytes)"
vector 193 AODVNetwork.host[8].wlan[0].queue queueingTime:vector ETV
attr interpolationmode none
attr title "queueing time, vector"
vector 194 AODVNetwork.host[8].wlan[0].mac rcvdPkFromHl:vector(packetBytes) ETV
attr interpolationmode none
attr source packetReceivedFromUpper
attr title "packets received from higher layer, vector(packetBytes)"
vector 195 AODVNetwork.host[8].wlan[0].mac sentDownPk:vector(packetBytes) ETV
attr interpolationmode none
attr source packetSentToLower
attr title "packets sent to lower layer, vector(packetBytes)"
vector 196 AODVNetwork.host[13].wlan[0].queue packetReceived:vector(packetBytes) ETV
attr interpolationmode none
attr title "received packets, vector(packetBytes)"
vector 197 AODVNetwork.host[13].wlan[0].queue queueingTime:vector ETV
attr interpolationmode none
attr title "queueing time, vector"
vector 198 AODVNetwork.host[13].wlan[0].mac rcvdPkFromHl:vector(packetBytes) ETV
attr interpolationmode none
attr source packetReceivedFromUpper
attr title "packets received from higher layer, vector(packetBytes)"
vector 199 AODVNetwork.host[13].wlan[0].mac sentDownPk:vector(packetBytes) ETV
attr interpolationmode none
attr source packetSentToLower
attr title "packets sent to lower layer, vector(packetBytes)"
vector 200 AODVNetwork.host[23].wlan[0].queue packetReceived:vector(packetBytes) ETV
attr interpolationmode none
attr title "received packets, vector(packetBytes)"
vector 201 AODVNetwork.host[23].wlan[0].queue queueingTime:vector ETV
attr interpolationmode none
attr title "queueing time, vector"
vector 202 AODVNetwork.host[23].wlan[0].mac rcvdPkFromHl:vector(packetBytes) ETV
attr interpolationmode none
attr source packetReceivedFromUpper
attr title "packets received from higher layer, vector(packetBytes)"
vector 203 AODVNetwork.host[23].wlan[0].mac sentDownPk:vector(packetBytes) ETV
attr interpolationmode none
attr source packetSentToLower
attr title "packets sent to lower layer, vector(packetBytes)"
vector 204 AODVNetwork.host[19].wlan[0].queue packetReceived:vector(packetBytes) ETV
attr interpolationmode none
attr title "received packets, vector(packetBytes)"
vector 205 AODVNetwork.host[19].wlan[0].queue queueingTime:vector ETV
attr interpolationmode none
attr title "queueing time, vector"
vector 206 AODVNetwork.host[19].wlan[0].mac rcvdPkFromHl:vector(packetBytes) ETV
attr interpolationmode none
attr source packetReceivedFromUpper
attr title "packets received from higher layer, vector(packetBytes)"
vector 207 AODVNetwork.host[19].wlan[0].mac sentDownPk:vector(packetBytes) ETV
attr interpolationmode none
attr source packetSentToLower
attr title "packets sent to lower layer, vector(packetBytes)"
vector 208 AODVNetwork.host[20].wlan[0].queue packetReceived:vector(packetBytes) ETV
attr interpolationmode none
attr title "received packets, vector(packetBytes)"
vector 209 AODVNetwork.host[20].wlan[0].queue queueingTime:vector ETV
attr interpolationmode none
attr title "queueing time, vector"
vector 210 AODVNetwork.host[20].wlan[0].mac rcvdPkFromHl:vector(packetBytes) ETV
attr interpolationmode none
attr source packetReceivedFromUpper
attr title "packets received from higher layer, vector(packetBytes)"
vector 211 AODVNetwork.host[20].wlan[0].mac sentDownPk:vector(packetBytes) ETV
attr interpolationmode none
attr source packetSentToLower
attr title "packets sent to lower layer, vector(packetBytes)"
vector 212 AODVNetwork.host[11].wlan[0].queue packetReceived:vector(packetBytes) ETV
attr interpolationmode none
attr title "received packets, vector(packetBytes)"
vector 213 AODVNetwork.host[11].wlan[0].queue queueingTime:vector ETV
attr interpolationmode none
attr title "queueing time, vector"
vector 214 AODVNetwork.host[11].wlan[0].mac rcvdPkFromHl:vector(packetBytes) ETV
attr interpolationmode none
attr source packetReceivedFromUpper
attr title "packets received from higher layer, vector(packetBytes)"
vector 215 AODVNetwork.host[11].wlan[0].mac sentDownPk:vector(packetBytes) ETV
attr interpolationmode none
attr source packetSentToLower
attr title "packets sent to lower layer, vector(packetBytes)"
vector 216 AODVNetwork.host[4].wlan[0].queue packetReceived:vector(packetBytes) ETV
attr interpolationmode none
attr title "received packets, vector(packetBytes)"
vector 217 AODVNetwork.host[4].wlan[0].queue queueingTime:vector ETV
attr interpolationmode none
attr title "queueing time, vector"
vector 218 AODVNetwork.host[4].wlan[0].mac rcvdPkFromHl:vector(packetBytes) ETV
attr interpolationmode none
attr source packetReceivedFromUpper
attr title "packets received from higher layer, vector(packetBytes)"
vector 219 AODVNetwork.host[4].wlan[0].mac sentDownPk:vector(packetBytes) ETV
attr interpolationmode none
attr source packetSentToLower
attr title "packets sent to lower layer, vector(packetBytes)"
vector 220 AODVNetwork.host[15].wlan[0].queue packetReceived:vector(packetBytes) ETV
attr interpolationmode none
attr title "received packets, vector(packetBytes)"
vector 221 AODVNetwork.host[15].wlan[0].queue queueingTime:vector ETV
attr interpolationmode none
attr title "queueing time, vector"
vector 222 AODVNetwork.host[15].wlan[0].mac rcvdPkFromHl:vector(packetBytes) ETV
attr interpolationmode none
attr source packetReceivedFromUpper
attr title "packets received from higher layer, vector(packetBytes)"
vector 223 AODVNetwork.host[15].wlan[0].mac sentDownPk:vector(packetBytes) ETV
attr interpolationmode none
attr source packetSentToLower
attr title "packets sent to lower layer, vector(packetBytes)"
vector 224 AODVNetwork.host[16].wlan[0].queue packetReceived:vector(packetBytes) ETV
attr interpolationmode none
attr title "received packets, vector(packetBytes)"
vector 225 AODVNetwork.host[16].wlan[0].queue queueingTime:vector ETV
attr interpolationmode none
attr title "queueing time, vector"
vector 226 AODVNetwork.host[16].wlan[0].mac rcvdPkFromHl:vector(packetBytes) ETV
attr interpolationmode none
attr source packetReceivedFromUpper
attr title "packets received from higher layer, vector(packetBytes)"
vector 227 AODVNetwork.host[16].wlan[0].mac sentDownPk:vector(packetBytes) ETV
attr interpolationmode none
attr source packetSentToLower
attr title "packets sent to lower layer, vector(packetBytes)"
vector 228 AODVNetwork.host[3].wlan[0].queue packetReceived:vector(packetBytes) ETV
attr interpolationmode none
attr title "received packets, vector(packetBytes)"
vector 229 AODVNetwork.host[3].wlan[0].queue queueingTime:vector ETV
attr interpolationmode none
attr title "queueing time, vector"
vector 230 AODVNetwork.host[3].wlan[0].mac rcvdPkFromHl:vector(packetBytes) ETV
attr interpolationmode none
attr source packetReceivedFromUpper
attr title "packets received from higher layer, vector(packetBytes)"
vector 231 AODVNetwork.host[3].wlan[0].mac sentDownPk:vector(packetBytes) ETV
attr interpolationmode none
attr source packetSentToLower
attr title "packets sent to lower layer, vector(packetBytes)"
vector 232 AODVNetwork.host[12].wlan[0].queue packetReceived:vector(packetBytes) ETV
attr interpolationmode none
attr title "received packets, vector(packetBytes)"
vector 233 AODVNetwork.host[12].wlan[0].queue queueingTime:vector ETV
attr interpolationmode none
attr title "queueing time, vector"
vector 234 AODVNetwork.host[12].wlan[0].mac rcvdPkFromHl:vector(packetBytes) ETV
attr interpolationmode none
attr source packetReceivedFromUpper
attr title "packets received from higher layer, vector(packetBytes)"
vector 235 AODVNetwork.host[12].wlan[0].mac sentDownPk:vector(packetBytes) ETV
attr interpolationmode none
attr source packetSentToLower
attr title "packets sent to lower layer, vector(packetBytes)"
vector 236 AODVNetwork.host[17].wlan[0].queue packetReceived:vector(packetBytes) ETV
attr interpolationmode none
attr title "received packets, vector(packetBytes)"
vector 237 AODVNetwork.host[17].wlan[0].queue queueingTime:vector ETV
attr interpolationmode none
attr title "queueing time, vector"
vector 238 AODVNetwork.host[17].wlan[0].mac rcvdPkFromHl:vector(packetBytes) ETV
attr interpolationmode none
attr source packetReceivedFromUpper
attr title "packets received from higher layer, vector(packetBytes)"
vector 239 AODVNetwork.host[17].wlan[0].mac sentDownPk:vector(packetBytes) ETV
attr interpolationmode none
attr source packetSentToLower
attr title "packets sent to lower layer, vector(packetBytes)"
0	0	0	0
1	0	0	0
1	0	0	0
1	0	0	4
2	0	0	0
3	0	0	0
3	0	0	0
3	0	0	4
4	0	0	0
5	0	0	0
5	0	0	0
5	0	0	4
6	0	0	0
7	0	0	0
7	0	0	0
7	0	0	4
8	0	0	0
9	0	0	0
9	0	0	0
9	0	0	4
10	0	0	0
11	0	0	0
11	0	0	0
11	0	0	4
12	0	0	0
13	0	0	0
13	0	0	0
13	0	0	4
14	0	0	0
15	0	0	0
15	0	0	0
15	0	0	4
16	0	0	0
17	0	0	0
17	0	0	0
17	0	0	4
18	0	0	0
19	0	0	0
19	0	0	0
19	0	0	4
20	0	0	0
21	0	0	0
21	0	0	0
21	0	0	4
22	0	0	0
23	0	0	0
23	0	0	0
23	0	0	4
24	0	0	0
25	0	0	0
25	0	0	0
25	0	0	4
26	0	0	0
27	0	0	0
27	0	0	0
27	0	0	4
28	0	0	0
29	0	0	0
29	0	0	0
29	0	0	4
30	0	0	0
31	0	0	0
31	0	0	0
31	0	0	4
32	0	0	0
33	0	0	0
33	0	0	0
33	0	0	4
34	0	0	0
35	0	0	0
35	0	0	0
35	0	0	4
36	0	0	0
37	0	0	0
37	0	0	0
37	0	0	4
38	0	0	0
39	0	0	0
39	0	0	0
39	0	0	4
40	0	0	0
41	0	0	0
41	0	0	0
41	0	0	4
42	0	0	0
43	0	0	0
43	0	0	0
43	0	0	4
44	0	0	0
45	0	0	0
45	0	0	0
45	0	0	4
46	0	0	0
47	0	0	0
47	0	0	0
47	0	0	4
48	0	0	1
49	0	0	1
50	0	0	1
51	0	0	1
51	1819	0.502840222819	2
51	1843	0.502873822819	1
51	4163	0.823394397668	2
51	4187	0.823427997668	1
51	5875	1.300644631492	2
51	5899	1.300678231492	1
51	9527	1.944390967343	2
51	9578	1.944424567343	1
51	17697	4.900619099912	2
51	17721	4.900652699912	1
51	26785	7.861074403683	2
51	26809	7.861108003683	1
51	36513	11.003484986209	2
51	36537	11.003518586209	1
51	38323	11.322454093084	2
51	38371	11.322487693084	1
51	41309	11.804520221974	2
51	41333	11.804553821974	1
51	43687	12.442236891497	2
51	43735	12.442270491497	1
51	53003	15.40375382432	2
51	53027	15.40378742432	1
51	61761	18.364436324178	2
51	61809	18.364469924178	1
51	71209	21.504297904172	2
51	71257	21.504331504172	1
51	72302	21.820294351422	2
51	72326	21.820327951422	1
51	74881	22.300516490776	2
51	74905	22.300550090776	1
51	78533	22.94442475948	2
51	78557	22.94445835948	1
51	86856	25.901958984692	2
51	86880	25.901992584692	1
51	95359	28.860230067876	2
51	95407	28.860263667876	1
51	104907	32.00098629736	2
51	104931	32.00101989736	1
51	107557	32.32314688354	2
51	107581	32.32318048354	1
51	109856	32.802911598667	2
51	109907	32.802945198667	1
51	112258	33.441256059807	2
51	112309	33.441289659807	1
51	120937	36.400175800308	2
51	120961	36.400209400308	1
51	130535	39.363779337649	2
51	130559	39.363812937649	1
51	139779	42.503302680852	2
51	139803	42.503336280852	1
51	141742	42.823245157951	2
51	141790	42.823278757951	1
51	144549	43.302789937009	2
51	144573	43.302823537009	1
51	147079	43.943004668434	2
51	147103	43.943038268434	1
51	156422	46.904423824109	2
51	156446	46.904457424109	1
51	164313	49.860455602156	2
51	164361	49.860489202156	1
51	173759	53.000267648119	2
51	173783	53.000301248119	1
51	175746	53.32013700366	2
51	175770	53.32017060366	1
51	178198	53.800987595513	2
51	178222	53.801021195513	1
51	181773	54.442456900349	2
51	181797	54.442490500349	1
51	190810	57.403942341943	2
51	190834	57.403975941943	1
51	198776	60.360048887612	2
51	198800	60.360082487612	1
51	208989	63.503221985719	2
51	209040	63.503255585719	1
51	210466	63.82178242443	2
51	210490	63.82181602443	1
51	212841	64.30064809524	2
51	212865	64.30068169524	1
51	215602	64.94077736611	2
51	215650	64.94081096611	1
51	224765	67.902442212342	2
51	224789	67.902475812342	1
51	233727	70.862735920447	2
51	233775	70.862769520447	1
51	243020	74.001831621861	2
51	243044	74.001865221861	1
51	245619	74.324593600229	2
51	245670	74.324627200229	1
51	247714	74.802442165444	2
51	247738	74.802475765444	1
51	250041	75.440567701822	2
51	250089	75.440601301822	1
51	259867	78.404154544011	2
51	259891	78.404188144011	1
51	267782	81.360538894078	2
51	267806	81.360572494078	1
51	277540	84.502122527396	2
51	277588	84.502156127396	1
51	279471	84.821221662906	2
51	279495	84.821255262906	1
51	282077	85.302277181962	2
51	282125	85.302310781962	1
51	285396	85.944407102334	2
51	285420	85.944440702334	1
51	294229	88.904017726453	2
51	294253	88.904051326453	1
51	302960	91.863986306365	2
51	302984	91.864019906365	1
51	312025	95.002004200773	2
51	312049	95.002037800773	1
51	314140	95.322905086995	2
51	314188	95.322938686995	1
51	316973	95.804133415165	2
51	316997	95.804167015165	1
51	318916	96.440117051158	2
51	318940	96.440150651158	1
51	328082	99.401381345537	2
51	328130	99.401414945537	1
51	337194	102.362098424099	2
51	337218	102.362132024099	1
52	0	0	1
53	0	0	1
53	1615	0.501963923966	2
53	1639	0.501997523966	1
53	3398	0.820591372119	2
53	3422	0.820624972119	1
53	6742	1.303753430694	2
53	6766	1.303787030694	1
53	9221	1.942343255992	2
53	9245	1.942376855992	1
53	18258	4.903895255091	2
53	18282	4.903928855091	1
53	26863	7.861388143542	2
53	26911	7.861421743542	1
53	36105	11.001032973028	2
53	36129	11.001066573028	1
53	37837	11.32038478222	2
53	37861	11.32041838222	1
53	40595	11.80213152939	2
53	40619	11.80216512939	1
53	43354	12.441293420328	2
53	43378	12.441327020328	1
53	51983	15.400123099783	2
53	52007	15.400156699783	1
53	61727	18.364434803904	2
53	61785	18.364468403904	1
53	71284	21.504482906295	2
53	71308	21.504516506295	1
53	73067	21.823356917418	2
53	73118	21.823390517418	1
53	75340	22.30341059477	2
53	75364	22.30344419477	1
53	78278	22.942282047793	2
53	78302	22.942315647793	1
53	87495	25.904657525192	2
53	87543	25.904691125192	1
53	96046	28.86363773498	2
53	96070	28.86367133498	1
53	105111	32.002335597017	2
53	105135	32.002369197017	1
53	107761	32.324169908237	2
53	107785	32.324203508237	1
53	109805	32.802699066903	2
53	109829	32.802732666903	1
53	113023	33.443596945293	2
53	113047	33.443630545293	1
53	121396	36.401657259606	2
53	121420	36.401690859606	1
53	130943	39.364710923609	2
53	130967	39.364744523609	1
53	140238	42.504790728582	2
53	140262	42.504824328582	1
53	142252	42.824421801796	2
53	142300	42.824455401796	1
53	143784	43.300812253652	2
53	143808	43.300845853652	1
53	146518	43.940376386397	2
53	146569	43.940409986397	1
53	155657	46.901316732604	2
53	155681	46.901350332604	1
53	164745	49.862779688458	2
53	164796	49.862813288458	1
53	173708	53.000024645632	2
53	173732	53.000058245632	1
53	176562	53.323890194234	2
53	176586	53.323923794234	1
53	178912	53.803787354212	2
53	178963	53.803820954212	1
53	181977	54.443071731485	2
53	182001	54.443105331485	1
53	190402	57.402531226047	2
53	190426	57.402564826047	1
53	198980	60.361009832157	2
53	199004	60.361043432157	1
53	208557	63.500940405068	2
53	208605	63.500974005068	1
53	210976	63.823221493113	2
53	211000	63.823255093113	1
53	212943	64.300987206555	2
53	212967	64.301020806555	1
53	216061	64.942400539051	2
53	216109	64.942434139051	1
53	224408	67.900716266165	2
53	224432	67.900749866165	1
53	234108	70.864150982904	2
53	234132	70.864184582904	1
53	243530	74.003819666818	2
53	243554	74.003853266818	1
53	245109	74.322861585064	2
53	245160	74.322895185064	1
53	247459	74.801713858561	2
53	247510	74.801747458561	1
53	250449	75.442393863185	2
53	250497	75.442427463185	1
53	258847	78.400064588424	2
53	258898	78.400098188424	1
53	268241	81.362767252161	2
53	268265	81.362800852161	1
53	278250	84.504814136523	2
53	278274	84.504847736523	1
53	279165	84.8204840161	2
53	279189	84.8205176161	1
53	281948	85.302212177678	2
53	281999	85.302245777678	1
53	284505	85.94038436495	2
53	284557	85.94041796495	1
53	294307	88.904141334702	2
53	294355	88.904174934702	1
53	302399	91.861332523192	2
53	302423	91.861366123192	1
53	312539	95.003908905172	2
53	312587	95.003942505172	1
53	313654	95.320115037673	2
53	313705	95.320148637673	1
53	316310	95.801552538968	2
53	316334	95.801586138968	1
53	319375	96.44118980343	2
53	319399	96.44122340343	1
53	328922	99.404969846326	2
53	328946	99.405003446326	1
53	337245	102.362291394463	2
53	337269	102.362324994463	1
54	0	0	1
55	0	0	1
55	2329	0.504627983166	2
55	2353	0.504661583166	1
55	4214	0.823603163258	2
55	4238	0.823636763258	1
55	6079	1.301577141748	2
55	6103	1.301610741748	1
55	9323	1.942548121859	2
55	9347	1.942581721859	1
55	18360	4.904240041137	2
55	18384	4.904273641137	1
55	26659	7.860932291093	2
55	26707	7.860965891093	1
55	36642	11.003893476984	2
55	36717	11.003927076984	1
55	38194	11.322347491527	2
55	38245	11.322381091527	1
55	40952	11.803450125101	2
55	40976	11.803483725101	1
55	43966	12.443638481685	2
55	43990	12.443672081685	1
55	52826	15.403497875307	2
55	52874	15.403531475307	1
55	61683	18.364400534314	2
55	61707	18.364434134314	1
55	70315	21.500292674612	2
55	70339	21.500326274612	1
55	72404	21.820619222095	2
55	72428	21.820652822095	1
55	75646	22.304335835784	2
55	75670	22.304369435784	1
55	78611	22.944486385385	2
55	78659	22.944519985385	1
55	86652	25.901210892954	2
55	86676	25.901244492954	1
55	95485	28.860948768094	2
55	95509	28.860982368094	1
55	105264	32.002674541001	2
55	105288	32.002708141001	1
55	107353	32.322174133186	2
55	107377	32.322207733186	1
55	109346	32.800537362834	2
55	109370	32.800570962834	1
55	112721	33.442251122361	2
55	112796	33.442284722361	1
55	121855	36.404531157112	2
55	121879	36.404564757112	1
55	130025	39.361714603972	2
55	130076	39.361748203972	1
55	139371	42.500761822396	2
55	139395	42.500795422396	1
55	141817	42.823437946471	2
55	141841	42.823471546471	1
55	144804	43.304912224412	2
55	144828	43.304945824412	1
55	146875	43.942345849248	2
55	146899	43.942379449248	1
55	156116	46.903509887955	2
55	156167	46.903543487955	1
55	164694	49.862507311148	2
55	164718	49.862540911148	1
55	173912	53.000908111976	2
55	173936	53.000941711976	1
55	176154	53.321649864448	2
55	176178	53.321683464448	1
55	178606	53.802641575655	2
55	178630	53.802675175655	1
55	181926	54.442942362567	2
55	181950	54.442975962567	1
55	190249	57.401366743679	2
55	190273	57.401400343679	1
55	198929	60.360776855919	2
55	198953	60.360810455919	1
55	208275	63.500301897394	2
55	208299	63.500335497394	1
55	211231	63.824659764491	2
55	211255	63.824693364491	1
55	212637	64.300023936901	2
55	212661	64.300057536901	1
55	215524	64.940350443809	2
55	215548	64.940384043809	1
55	224357	67.900671335098	2
55	224381	67.900704935098	1
55	234057	70.863694156482	2
55	234081	70.863727756482	1
55	243224	74.002645871365	2
55	243248	74.002679471365	1
55	245136	74.322888532288	2
55	245211	74.322922132288	1
55	248224	74.804900795202	2
55	248248	74.804934395202	1
55	250677	75.442711209728	2
55	250701	75.442744809728	1
55	259000	78.400158027217	2
55	259024	78.400191627217	1
55	267884	81.361154579627	2
55	267908	81.361188179627	1
55	278073	84.504034756431	2
55	278121	84.504068356431	1
55	279318	84.820766872213	2
55	279369	84.820800472213	1
55	281795	85.300463425927	2
55	281819	85.300497025927	1
55	284988	85.942830013079	2
55	285039	85.942863613079	1
55	293851	88.902358465348	2
55	293896	88.902392065348	1
55	302246	91.86057170499	2
55	302270	91.86060530499	1
55	312637	95.003951701761	2
55	312661	95.003985301761	1
55	314725	95.324966970686	2
55	314749	95.325000570686	1
55	316718	95.803301454573	2
55	316742	95.803335054573	1
55	319120	96.440401471748	2
55	319144	96.440435071748	1
55	327956	99.40130273822	2
55	328028	99.40133633822	1
55	337653	102.364435831788	2
55	337704	102.364469431788	1
56	0	0	1
57	0	0	1
57	2152	0.504180393844	2
57	2200	0.504213993844	1
57	4112	0.823199605085	2
57	4136	0.823233205085	1
57	6487	1.303039153334	2
57	6511	1.303072753334	1
57	9680	1.944883805454	2
57	9731	1.944917405454	1
57	18462	4.904324666464	2
57	18513	4.904358266464	1
57	27142	7.862933921727	2
57	27166	7.862967521727	1
57	36819	11.004236376584	2
57	36843	11.004269976584	1
57	38449	11.322594175738	2
57	38473	11.322627775738	1
57	40697	11.802366103346	2
57	40721	11.802399703346	1
57	44095	12.444245191528	2
57	44143	12.444278791528	1
57	52238	15.400744146482	2
57	52289	15.400777746482	1
57	61428	18.363094130851	2
57	61479	18.363127730851	1
57	70570	21.501355566968	2
57	70621	21.501389166968	1
57	72506	21.821723590611	2
57	72530	21.821757190611	1
57	75697	22.304456571757	2
57	75721	22.304490171757	1
57	77717	22.940766844405	2
57	77741	22.940800444405	1
57	87213	25.903369186729	2
57	87237	25.903402786729	1
57	95587	28.861449567243	2
57	95611	28.861483167243	1
57	104805	32.000377832802	2
57	104829	32.000411432802	1
57	107047	32.321069176741	2
57	107071	32.321102776741	1
57	110264	32.804341274943	2
57	110288	32.804374874943	1
57	112666	33.44174996424	2
57	112690	33.44178356424	1
57	121168	36.401030317664	2
57	121216	36.401063917664	1
57	130841	39.364441325205	2
57	130865	39.364474925205	1
57	140034	42.504117859703	2
57	140058	42.504151459703	1
57	142021	42.823845777659	2
57	142072	42.823879377659	1
57	143733	43.300407905526	2
57	143757	43.300441505526	1
57	146545	43.94039123048	2
57	146593	43.94042483048	1
57	156524	46.904650553847	2
57	156548	46.904684153847	1
57	164898	49.863708015545	2
57	164922	49.863741615545	1
57	173861	53.000816318308	2
57	173885	53.000849918308	1
57	176103	53.321537660188	2
57	176127	53.321571260188	1
57	178147	53.800108344664	2
57	178171	53.800141944664	1
57	181365	54.441107450875	2
57	181389	54.441141050875	1
57	190300	57.401850260177	2
57	190324	57.401883860177	1
57	199694	60.363468616683	2
57	199745	60.363502216683	1
57	209193	63.504476461976	2
57	209217	63.504510061976	1
57	211027	63.823571499239	2
57	211051	63.823605099239	1
57	213708	64.304850654352	2
57	213732	64.304884254352	1
57	216391	64.943219320206	2
57	216415	64.943252920206	1
57	225404	67.904343642886	2
57	225452	67.904377242886	1
57	234159	70.864214674301	2
57	234183	70.864248274301	1
57	242816	74.000984459952	2
57	242840	74.001018059952	1
57	245568	74.324474348709	2
57	245592	74.324507948709	1
57	247102	74.800419984729	2
57	247126	74.800453584729	1
57	250218	75.441219704087	2
57	250242	75.441253304087	1
57	259663	78.403638943747	2
57	259687	78.403672543747	1
57	268496	81.363710046501	2
57	268520	81.363743646501	1
57	277536	84.50212249525	2
57	277587	84.50215609525	1
57	280236	84.824448810701	2
57	280260	84.824482410701	1
57	282560	85.304553558723	2
57	282611	85.304587158723	1
57	285243	85.943446503439	2
57	285267	85.943480103439	1
57	293413	88.900760262823	2
57	293437	88.900793862823	1
57	303215	91.864818744271	2
57	303266	91.864852344271	1
57	312205	95.002377998485	2
57	312253	95.002411598485	1
57	313885	95.320669438869	2
57	313933	95.320703038869	1
57	317075	95.80454063214	2
57	317099	95.80457423214	1
57	319936	96.444508033653	2
57	319987	96.444541633653	1
57	327800	99.4002860378	2
57	327824	99.4003196378	1
57	336684	102.360240389076	2
57	336708	102.360273989076	1
58	0	0	1
59	0	0	1
59	1360	0.500355180294	2
59	1384	0.500388780294	1
59	4061	0.822910098956	2
59	4085	0.822943698956	1
59	6181	1.301818553867	2
59	6205	1.301852153867	1
59	8711	1.940278573465	2
59	8735	1.940312173465	1
59	18309	4.904036594802	2
59	18333	4.904070194802	1
59	27397	7.864037901325	2
59	27421	7.864071501325	1
59	36615	11.00388703779	2
59	36693	11.00392063779	1
59	38857	11.324413546436	2
59	38881	11.324447146436	1
59	41003	11.80349811028	2
59	41027	11.80353171028	1
59	44017	12.443711189888	2
59	44041	12.443744789888	1
59	53054	15.404839827855	2
59	53078	15.404873427855	1
59	61071	18.36164151655	2
59	61095	18.36167511655	1
59	70927	21.502353104507	2
59	70978	21.502386704507	1
59	73322	21.824283776238	2
59	73346	21.824317376238	1
59	74830	22.300145951203	2
59	74854	22.300179551203	1
59	77921	22.941660954441	2
59	77945	22.941694554441	1
59	86703	25.901251991079	2
59	86727	25.901285591079	1
59	95842	28.862604373974	2
59	95866	28.862637973974	1
59	104958	32.001451240213	2
59	104982	32.001484840213	1
59	107251	32.322069005092	2
59	107302	32.322102605092	1
59	109550	32.80143772251	2
59	109574	32.80147132251	1
59	112462	33.44144150277	2
59	112486	33.44147510277	1
59	121702	36.404081821545	2
59	121726	36.404115421545	1
59	130280	39.3630182471	2
59	130304	39.3630518471	1
59	140340	42.504980356356	2
59	140364	42.505013956356	1
59	141205	42.820213079652	2
59	141229	42.820246679652	1
59	144141	43.302002242662	2
59	144192	43.302035842662	1
59	147283	43.94362658116	2
59	147307	43.94366018116	1
59	155963	46.902448424557	2
59	155987	46.902482024557	1
59	164439	49.860598627221	2
59	164463	49.860632227221	1
59	173810	53.000561121587	2
59	173834	53.000594721587	1
59	176358	53.322955712085	2
59	176409	53.322989312085	1
59	178810	53.803358449284	2
59	178861	53.803392049284	1
59	181875	54.442866233767	2
59	181899	54.442899833767	1
59	190912	57.404435657725	2
59	190936	57.404469257725	1
59	199235	60.361885804872	2
59	199259	60.361919404872	1
59	208914	63.503073813763	2
59	208962	63.503107413763	1
59	210568	63.822401477474	2
59	210592	63.822435077474	1
59	213198	64.302768830362	2
59	213222	64.302802430362	1
59	215575	64.940749077505	2
59	215626	64.940782677505	1
59	225326	67.904253139993	2
59	225350	67.904286739993	1
59	233982	70.863337088813	2
59	234030	70.863370688813	1
59	243275	74.00271403232	2
59	243299	74.00274763232	1
59	244854	74.321928630579	2
59	244878	74.321962230579	1
59	247629	74.80211305037	2
59	247677	74.80214665037	1
59	250422	75.442373868567	2
59	250473	75.442407468567	1
59	259510	78.402842095232	2
59	259534	78.402875695232	1
59	268853	81.364727043426	2
59	268877	81.364760643426	1
59	277944	84.503594078548	2
59	277968	84.503627678548	1
59	279675	84.821650780764	2
59	279699	84.821684380764	1
59	282026	85.302274521349	2
59	282101	85.302308121349	1
59	285192	85.943378446047	2
59	285216	85.943412046047	1
59	294154	88.903791827466	2
59	294202	88.903825427466	1
59	303242	91.864826917371	2
59	303290	91.864860517371	1
59	312331	95.00324234177	2
59	312382	95.00327594177	1
59	314470	95.324425511869	2
59	314494	95.324459111869	1
59	316820	95.803797681526	2
59	316844	95.803831281526	1
59	319528	96.442174681165	2
59	319552	96.442208281165	1
59	328412	99.402799737072	2
59	328436	99.402833337072	1
59	337755	102.364668382294	2
59	337779	102.364701982294	1
60	0	0	1
61	0	0	1
61	1513	0.501686980808	2
61	1537	0.501720580808	1
61	3500	0.820716766428	2
61	3524	0.820750366428	1
61	6130	1.301625236138	2
61	6154	1.301658836138	1
61	9374	1.94302422759	2
61	9398	1.94305782759	1
61	17928	4.902056983622	2
61	17976	4.902090583622	1
61	27499	7.864319278006	2
61	27523	7.864352878006	1
61	36462	11.003406795667	2
61	36486	11.003440395667	1
61	38041	11.321534050502	2
61	38065	11.321567650502	1
61	40799	11.802900985539	2
61	40823	11.802934585539	1
61	43150	12.440166523132	2
61	43174	12.440200123132	1
61	52163	15.400659260177	2
61	52211	15.400692860177	1
61	60969	18.360667307347	2
61	60993	18.360700907347	1
61	70954	21.502365950254	2
61	71017	21.502399550254	1
61	73169	21.82356883435	2
61	73193	21.82360243435	1
61	74728	22.300006037861	2
61	74752	22.300039637861	1
61	77819	22.940997980693	2
61	77843	22.941031580693	1
61	86601	25.901122334684	2
61	86625	25.901155934684	1
61	95893	28.862888547108	2
61	95917	28.862922147108	1
61	105723	32.004144204529	2
61	105747	32.004177804529	1
61	107710	32.323856127315	2
61	107734	32.323889727315	1
61	110213	32.803974938915	2
61	110237	32.804008538915	1
61	112285	33.441271911972	2
61	112333	33.441305511972	1
61	121345	36.401535864749	2
61	121369	36.401569464749	1
61	130790	39.364301553383	2
61	130814	39.364335153383	1
61	140136	42.504605297988	2
61	140160	42.504638897988	1
61	141919	42.823559352256	2
61	141943	42.823592952256	1
61	144345	43.30256592359	2
61	144369	43.30259952359	1
61	146824	43.941856434743	2
61	146848	43.941890034743	1
61	155861	46.901867244476	2
61	155885	46.901900844476	1
61	165000	49.863852720333	2
61	165078	49.863886320333	1
61	174422	53.003484136673	2
61	174446	53.003517736673	1
61	176664	53.324378461352	2
61	176688	53.324412061352	1
61	178759	53.803045861459	2
61	178783	53.803079461459	1
61	181137	54.440221259871	2
61	181212	54.440254859871	1
61	190045	57.400982484235	2
61	190069	57.401016084235	1
61	199796	60.363895769614	2
61	199820	60.363929369614	1
61	209016	63.503233877225	2
61	209064	63.503267477225	1
61	210619	63.822469327439	2
61	210643	63.822502927439	1
61	213045	64.301281550721	2
61	213069	64.301315150721	1
61	216136	64.942508865634	2
61	216160	64.942542465634	1
61	224816	67.902531008335	2
61	224840	67.902564608335	1
61	233547	70.862073220727	2
61	233579	70.862106820727	1
61	243785	74.004898528171	2
61	243809	74.004932128171	1
61	244650	74.320881408222	2
61	244674	74.320915008222	1
61	248173	74.804697577971	2
61	248197	74.804731177971	1
61	250857	75.44361075384	2
61	250905	75.44364435384	1
61	259408	78.402427190687	2
61	259432	78.402460790687	1
61	268676	81.364485729344	2
61	268724	81.364519329344	1
61	277842	84.502930816958	2
61	277866	84.502964416958	1
61	279114	84.82030922392	2
61	279138	84.82034282392	1
61	282662	85.304705451429	2
61	282686	85.304739051429	1
61	285498	85.944768530912	2
61	285522	85.944802130912	1
61	294382	88.904304148993	2
61	294406	88.904337748993	1
61	302654	91.86183856308	2
61	302678	91.86187216308	1
61	312433	95.003486082441	2
61	312457	95.003519682441	1
61	313681	95.32012605084	2
61	313729	95.32015965084	1
61	316769	95.803735497929	2
61	316793	95.803769097929	1
61	319579	96.442542549475	2
61	319603	96.442576149475	1
61	328055	99.40137830611	2
61	328106	99.40141190611	1
61	336837	102.360748882053	2
61	336861	102.360782482053	1
62	0	0	1
63	0	0	1
63	1411	0.500435646485	2
63	1435	0.500469246485	1
63	3959	0.822686866141	2
63	3983	0.822720466141	1
63	6385	1.30285098388	2
63	6409	1.30288458388	1
63	9170	1.94225579607	2
63	9194	1.94228939607	1
63	18105	4.902845503722	2
63	18129	4.902879103722	1
63	27346	7.863735397354	2
63	27370	7.863768997354	1
63	36156	11.001297112828	2
63	36180	11.001330712828	1
63	38296	11.322442050308	2
63	38347	11.322475650308	1
63	40544	11.801638601988	2
63	40568	11.801672201988	1
63	43405	12.441534930263	2
63	43429	12.441568530263	1
63	53105	15.40497200394	2
63	53129	15.40500560394	1
63	61173	18.362022124686	2
63	61197	18.362055724686	1
63	70417	21.500579170017	2
63	70468	21.500612770017	1
63	72686	21.821998336861	2
63	72734	21.822031936861	1
63	75289	22.302674584273	2
63	75313	22.302708184273	1
63	78380	22.94356463427	2
63	78404	22.94359823427	1
63	87009	25.902416967702	2
63	87033	25.902450567702	1
63	95740	28.861879971327	2
63	95764	28.861913571327	1
63	105009	32.001520867784	2
63	105033	32.001554467784	1
63	107278	32.322075163089	2
63	107326	32.322108763089	1
63	109652	32.802283518137	2
63	109676	32.802317118137	1
63	113176	33.444605961053	2
63	113200	33.444639561053	1
63	121498	36.402762906643	2
63	121522	36.402796506643	1
63	130331	39.363106962942	2
63	130355	39.363140562942	1
63	139245	42.500501167182	2
63	139293	42.500534767182	1
63	141562	42.822746186329	2
63	141613	42.822779786329	1
63	144600	43.303329356987	2
63	144624	43.303362956987	1
63	146620	43.940488298257	2
63	146644	43.940521898257	1
63	155504	46.900658436394	2
63	155528	46.900692036394	1
63	164541	49.86137020283	2
63	164565	49.86140380283	1
63	173963	53.000966673221	2
63	173987	53.001000273221	1
63	176715	53.32469046704	2
63	176739	53.32472406704	1
63	178555	53.802351606388	2
63	178579	53.802385206388	1
63	181188	54.440247283309	2
63	181236	54.440280883309	1
63	189994	57.400827728097	2
63	190018	57.400861328097	1
63	199439	60.36256008716	2
63	199463	60.36259368716	1
63	209271	63.504722020593	2
63	209319	63.504755620593	1
63	210874	63.822960441054	2
63	210925	63.822994041054	1
63	212790	64.300569470502	2
63	212814	64.300603070502	1
63	216238	64.942869968503	2
63	216289	64.942903568503	1
63	224918	67.90287495164	2
63	224942	67.90290855164	1
63	233880	70.863153732464	2
63	233928	70.863187332464	1
63	243377	74.003570268905	2
63	243428	74.003603868905	1
63	244701	74.321138531993	2
63	244725	74.321172131993	1
63	247408	74.801633176161	2
63	247432	74.801666776161	1
63	249963	75.440228641528	2
63	249987	75.440262241528	1
63	259612	78.403045806313	2
63	259636	78.403079406313	1
63	268292	81.362975760192	2
63	268343	81.363009360192	1
63	278199	84.504714197228	2
63	278223	84.504747797228	1
63	279624	84.821464414643	2
63	279648	84.821498014643	1
63	282458	85.304359842006	2
63	282482	85.304393442006	1
63	285447	85.944613198241	2
63	285471	85.944646798241	1
63	293464	88.900832405661	2
63	293488	88.900866005661	1
63	303062	91.864350932927	2
63	303086	91.864384532927	1
63	312739	95.004810853866	2
63	312763	95.004844453866	1
63	314113	95.322888357593	2
63	314164	95.322921957593	1
63	316514	95.802464608765	2
63	316538	95.802498208765	1
63	319630	96.442983416516	2
63	319654	96.443017016516	1
63	328310	99.402391078193	2
63	328334	99.402424678193	1
63	337041	102.361811749917	2
63	337065	102.361845349917	1
64	0	0	1
65	0	0	1
65	1870	0.503240859383	2
65	1894	0.503274459383	1
65	4418	0.824723344593	2
65	4442	0.824756944593	1
65	5773	1.300192127128	2
65	5797	1.300225727128	1
65	9476	1.943696317907	2
65	9500	1.943729917907	1
65	17748	4.900699862916	2
65	17772	4.900733462916	1
65	26377	7.860587659287	2
65	26401	7.860621259287	1
65	36003	11.000891836768	2
65	36027	11.000925436768	1
65	38602	11.322887714745	2
65	38626	11.322921314745	1
65	41054	11.803581220859	2
65	41078	11.803614820859	1
65	44221	12.444794913607	2
65	44245	12.444828513607	1
65	52901	15.403539587308	2
65	52952	15.403573187308	1
65	61989	18.364902900667	2
65	62013	18.364936500667	1
65	71005	21.502398769369	2
65	71080	21.502432369369	1
65	72914	21.823195934509	2
65	72938	21.823229534509	1
65	75748	22.304686094139	2
65	75772	22.304719694139	1
65	78203	22.942164921028	2
65	78251	22.942198521028	1
65	86499	25.900123765394	2
65	86523	25.900157365394	1
65	96199	28.863895897162	2
65	96223	28.863929497162	1
65	105621	32.003952311449	2
65	105645	32.003985911449	1
65	106741	32.320060855818	2
65	106765	32.320094455818	1
65	109244	32.80016178117	2
65	109268	32.80019538117	1
65	112360	33.441326516622	2
65	112411	33.441360116622	1
65	121957	36.40492386235	2
65	122008	36.40495746235	1
65	130409	39.363264998802	2
65	130457	39.363298598802	1
65	139422	42.501203479896	2
65	139473	42.501237079896	1
65	141256	42.820268667724	2
65	141280	42.820302267724	1
65	143886	43.301106648779	2
65	143910	43.301140248779	1
65	147385	43.943832955272	2
65	147436	43.943866555272	1
65	156320	46.903858160643	2
65	156344	46.903891760643	1
65	165204	49.864541241897	2
65	165228	49.864574841897	1
65	174041	53.001137156902	2
65	174089	53.001170756902	1
65	175797	53.320213815718	2
65	175848	53.320247415718	1
65	179167	53.804725949819	2
65	179218	53.804759549819	1
65	181722	54.442156289235	2
65	181746	54.442189889235	1
65	189892	57.400149405689	2
65	189916	57.400183005689	1
65	199388	60.362452745287	2
65	199412	60.362486345287	1
65	208785	63.50248739926	2
65	208809	63.50252099926	1
65	210823	63.822909444718	2
65	210847	63.822943044718	1
65	213759	64.304901875374	2
65	213783	64.304935475374	1
65	216442	64.944057592371	2
65	216466	64.944091192371	1
65	224612	67.901743540328	2
65	224636	67.901777140328	1
65	233574	70.862106366978	2
65	233622	70.862139966978	1
65	243326	74.003512086701	2
65	243350	74.003545686701	1
65	244752	74.321398393988	2
65	244776	74.321431993988	1
65	247561	74.802025805281	2
65	247585	74.802059405281	1
65	250014	75.440563941307	2
65	250065	75.440597541307	1
65	259918	78.404437109047	2
65	259942	78.404470709047	1
65	268115	81.361900172895	2
65	268163	81.361933772895	1
65	277332	84.501696104101	2
65	277374	84.501729704101	1
65	279726	84.822248472126	2
65	279750	84.822282072126	1
65	281669	85.300095382992	2
65	281717	85.300128982992	1
65	285345	85.943976264048	2
65	285369	85.944009864048	1
65	293719	88.901328542703	2
65	293743	88.901362142703	1
65	302501	91.861487926849	2
65	302525	91.861521526849	1
65	312103	95.002163192325	2
65	312151	95.002196792325	1
65	314419	95.32428694032	2
65	314443	95.32432054032	1
65	316412	95.801831945216	2
65	316436	95.801865545216	1
65	319681	96.443040961898	2
65	319705	96.443074561898	1
65	328514	99.403370831406	2
65	328538	99.403404431406	1
65	336915	102.360820021937	2
65	336963	102.360853621937	1
66	0	0	1
67	0	0	1
67	1309	0.500101091996	2
67	1333	0.500134691996	1
67	4316	0.823793078102	2
67	4340	0.823826678102	1
67	6283	1.302193007567	2
67	6307	1.302226607567	1
67	8609	1.940099938362	2
67	8633	1.940133538362	1
67	17901	4.902035916488	2
67	17952	4.902069516488	1
67	27193	7.863374236726	2
67	27217	7.863407836726	1
67	36285	11.001869065698	2
67	36333	11.001902665698	1
67	38092	11.32207283739	2
67	38116	11.32210643739	1
67	41156	11.803783893231	2
67	41180	11.803817493231	1
67	43252	12.440598856742	2
67	43276	12.440632456742	1
67	52571	15.402259108408	2
67	52619	15.402292708408	1
67	61329	18.362723236773	2
67	61401	18.362756836773	1
67	70825	21.50228529379	2
67	70876	21.50231889379	1
67	72584	21.821906985757	2
67	72632	21.821940585757	1
67	75136	22.302021218074	2
67	75160	22.302054818074	1
67	78152	22.942134717065	2
67	78227	22.942168317065	1
67	86550	25.900199964028	2
67	86574	25.900233564028	1
67	95536	28.861210498523	2
67	95560	28.861244098523	1
67	105393	32.002955326902	2
67	105441	32.002988926902	1
67	106792	32.320160278108	2
67	106816	32.320193878108	1
67	109193	32.800104750326	2
67	109217	32.800138350326	1
67	112717	33.44225104583	2
67	112795	33.44228464583	1
67	121804	36.40425904292	2
67	121828	36.40429264292	1
67	129974	39.36149306833	2
67	129998	39.36152666833	1
67	140085	42.504335572685	2
67	140109	42.504369172685	1
67	141715	42.823215993878	2
67	141766	42.823249593878	1
67	144168	43.302004397843	2
67	144216	43.302037997843	1
67	146722	43.94058745797	2
67	146746	43.94062105797	1
67	155912	46.901985068342	2
67	155936	46.902018668342	1
67	165255	49.864602737941	2
67	165306	49.864636337941	1
67	174116	53.001733039048	2
67	174140	53.001766639048	1
67	176001	53.32108752073	2
67	176025	53.32112112073	1
67	179269	53.804798478211	2
67	179293	53.804832078211	1
67	181620	54.441926457806	2
67	181644	54.441960057806	1
67	190606	57.403329799594	2
67	190630	57.403363399594	1
67	199541	60.363034945858	2
67	199592	60.363068545858	1
67	208455	63.500801299587	2
67	208503	63.500834899587	1
67	211129	63.824143671532	2
67	211153	63.824177271532	1
67	213378	64.303610122682	2
67	213426	64.303643722682	1
67	215932	64.941784519603	2
67	215956	64.941818119603	1
67	225224	67.903699687406	2
67	225248	67.903733287406	1
67	233343	70.860602161199	2
67	233367	70.860635761199	1
67	243173	74.002582779694	2
67	243197	74.002616379694	1
67	245466	74.323917695968	2
67	245490	74.323951295968	1
67	248122	74.804108359676	2
67	248146	74.804141959676	1
67	250779	75.443253387084	2
67	250803	75.443286987084	1
67	259969	78.40480787573	2
67	259993	78.40484147573	1
67	268037	81.361776713091	2
67	268061	81.361810313091	1
67	277791	84.5026707801	2
67	277815	84.5027043801	1
67	279930	84.823651848837	2
67	279954	84.823685448837	1
67	281975	85.302241410742	2
67	282033	85.302275010742	1
67	285141	85.943211705032	2
67	285165	85.943245305032	1
67	293923	88.902659836728	2
67	293947	88.902693436728	1
67	303113	91.864425659789	2
67	303137	91.864459259789	1
67	311668	95.000531009344	2
67	311692	95.000564609344	1
67	313756	95.320341502725	2
67	313780	95.320375102725	1
67	316208	95.801024388471	2
67	316232	95.801057988471	1
67	320038	96.444700703014	2
67	320062	96.444734303014	1
67	328259	99.402229863309	2
67	328283	99.402263463309	1
67	337296	102.362442235673	2
67	337320	102.362475835673	1
68	0	0	1
69	0	0	1
69	1564	0.501841207687	2
69	1588	0.501874807687	1
69	3908	0.822609241641	2
69	3932	0.822642841641	1
69	6538	1.303171370266	2
69	6589	1.303204970266	1
69	8660	1.940195938945	2
69	8684	1.940229538945	1
69	17544	4.900166111932	2
69	17568	4.900199711932	1
69	27040	7.862586895556	2
69	27064	7.862620495556	1
69	35901	11.000349295087	2
69	35925	11.000382895087	1
69	38908	11.32479716672	2
69	38932	11.32483076672	1
69	40289	11.800135344934	2
69	40313	11.800168944934	1
69	43456	12.441776844248	2
69	43507	12.441810444248	1
69	52928	15.403545360598	2
69	52976	15.403578960598	1
69	61632	18.364358928684	2
69	61656	18.364392528684	1
69	71131	21.502541951932	2
69	71155	21.502575551932	1
69	72659	21.82199580573	2
69	72710	21.82202940573	1
69	75799	22.304791536791	2
69	75823	22.304825136791	1
69	78329	22.942641170459	2
69	78353	22.942674770459	1
69	86448	25.900037341585	2
69	86472	25.900070941585	1
69	96250	28.863977951829	2
69	96274	28.864011551829	1
69	105213	32.002574964546	2
69	105237	32.002608564546	1
69	107200	32.321614147687	2
69	107224	32.321647747687	1
69	110009	32.803492787051	2
69	110033	32.803526387051	1
69	112156	33.440636470104	2
69	112180	33.440670070104	1
69	121651	36.403342885772	2
69	121675	36.403376485772	1
69	130052	39.361721445824	2
69	130100	39.361755045824	1
69	139881	42.503442314658	2
69	139905	42.503475914658	1
69	141511	42.821981113713	2
69	141535	42.822014713713	1
69	143937	43.301161582489	2
69	143988	43.301195182489	1
69	147130	43.943443417111	2
69	147154	43.943477017111	1
69	155810	46.901699215176	2
69	155834	46.901732815176	1
69	164490	49.86075174877	2
69	164514	49.86078534877	1
69	174704	53.004235086733	2
69	174752	53.004268686733	1
69	175695	53.320001836751	2
69	175719	53.320035436751	1
69	178276	53.801210066044	2
69	178324	53.801243666044	1
69	182028	54.443363135712	2
69	182052	54.443396735712	1
69	190096	57.401130905241	2
69	190120	57.401164505241	1
69	199568	60.36304843234	2
69	199616	60.36308203234	1
69	208734	63.501850976202	2
69	208758	63.501884576202	1
69	210238	63.820631837624	2
69	210286	63.820665437624	1
69	212739	64.300510921046	2
69	212763	64.300544521046	1
69	216034	64.942380419913	2
69	216085	64.942414019913	1
69	224867	67.902663602879	2
69	224891	67.902697202879	1
69	234261	70.864631329399	2
69	234285	70.864664929399	1
69	243659	74.003996179641	2
69	243707	74.004029779641	1
69	245187	74.32290839918	2
69	245235	74.32294199918	1
69	247231	74.801002508092	2
69	247279	74.801036108092	1
69	251085	75.44495226655	2
69	251109	75.44498586655	1
69	259153	78.400846145452	2
69	259177	78.400879745452	1
69	268319	81.363008167449	2
69	268367	81.363041767449	1
69	277689	84.502402788458	2
69	277713	84.502436388458	1
69	279573	84.821423470331	2
69	279597	84.821457070331	1
69	281897	85.30129567365	2
69	281921	85.30132927365	1
69	284862	85.941948932144	2
69	284910	85.941982532144	1
69	293770	88.901458474459	2
69	293794	88.901492074459	1
69	302297	91.860764038189	2
69	302321	91.860797638189	1
69	311974	95.001905987168	2
69	311998	95.001939587168	1
69	314215	95.323086624144	2
69	314266	95.323120224144	1
69	316463	95.802292986386	2
69	316487	95.802326586386	1
69	318967	96.440190091159	2
69	319018	96.440223691159	1
69	327902	99.401279477665	2
69	327980	99.401313077665	1
69	337092	102.361896178781	2
69	337116	102.361929778781	1
70	0	0	1
71	0	0	1
71	2125	0.504163099214	2
71	2176	0.504196699214	1
71	3347	0.820529538032	2
71	3371	0.820563138032	1
71	6844	1.304941869159	2
71	6868	1.304975469159	1
71	9119	1.942208554607	2
71	9143	1.942242154607	1
71	17646	4.900345834951	2
71	17670	4.900379434951	1
71	26836	7.861384468761	2
71	26887	7.861418068761	1
71	36411	11.002937998184	2
71	36435	11.002971598184	1
71	37990	11.320870559744	2
71	38014	11.320904159744	1
71	40901	11.803180305283	2
71	40925	11.803213905283	1
71	43660	12.442219393399	2
71	43711	12.442252993399	1
71	52034	15.400354348898	2
71	52058	15.400387948898	1
71	61455	18.363108464479	2
71	61503	18.363142064479	1
71	71386	21.504899811599	2
71	71410	21.504933411599	1
71	72251	21.820109868179	2
71	72275	21.820143468179	1
71	75214	22.302620919276	2
71	75262	22.302654519276	1
71	77870	22.941508462339	2
71	77894	22.941542062339	1
71	87162	25.903198525505	2
71	87186	25.903232125505	1
71	95995	28.863422763683	2
71	96019	28.863456363683	1
[...]
228	208273	63.500301897394	52
228	211229	63.824659764491	52
228	212635	64.300023936901	52
228	215522	64.940350443809	52
228	224355	67.900671335098	52
228	234055	70.863694156482	52
228	243222	74.002645871365	52
228	245134	74.322888532288	52
228	248222	74.804900795202	52
228	250675	75.442711209728	52
228	258998	78.400158027217	52
228	267882	81.361154579627	52
228	278071	84.504034756431	52
228	279316	84.820766872213	52
228	281793	85.300463425927	52
228	284986	85.942830013079	52
228	293849	88.902358465348	52
228	302244	91.86057170499	52
228	312635	95.003951701761	52
228	314723	95.324966970686	52
228	316716	95.803301454573	52
228	319118	96.440401471748	52
228	327954	99.40130273822	52
228	337651	102.364435831788	52
229	2327	0.504627983166	0
229	4212	0.823603163258	0
229	6077	1.301577141748	0
229	9321	1.942548121859	0
229	18358	4.904240041137	0
229	26657	7.860932291093	0
229	36640	11.003893476984	0
229	38192	11.322347491527	0
229	40950	11.803450125101	0
229	43964	12.443638481685	0
229	52824	15.403497875307	0
229	61681	18.364400534314	0
229	70313	21.500292674612	0
229	72402	21.820619222095	0
229	75644	22.304335835784	0
229	78609	22.944486385385	0
229	86650	25.901210892954	0
229	95483	28.860948768094	0
229	105262	32.002674541001	0
229	107351	32.322174133186	0
229	109344	32.800537362834	0
229	112719	33.442251122361	0
229	121853	36.404531157112	0
229	130023	39.361714603972	0
229	139369	42.500761822396	0
229	141815	42.823437946471	0
229	144802	43.304912224412	0
229	146873	43.942345849248	0
229	156114	46.903509887955	0
229	164692	49.862507311148	0
229	173910	53.000908111976	0
229	176152	53.321649864448	0
229	178604	53.802641575655	0
229	181924	54.442942362567	0
229	190247	57.401366743679	0
229	198927	60.360776855919	0
229	208273	63.500301897394	0
229	211229	63.824659764491	0
229	212635	64.300023936901	0
229	215522	64.940350443809	0
229	224355	67.900671335098	0
229	234055	70.863694156482	0
229	243222	74.002645871365	0
229	245134	74.322888532288	0
229	248222	74.804900795202	0
229	250675	75.442711209728	0
229	258998	78.400158027217	0
229	267882	81.361154579627	0
229	278071	84.504034756431	0
229	279316	84.820766872213	0
229	281793	85.300463425927	0
229	284986	85.942830013079	0
229	293849	88.902358465348	0
229	302244	91.86057170499	0
229	312635	95.003951701761	0
229	314723	95.324966970686	0
229	316716	95.803301454573	0
229	319118	96.440401471748	0
229	327954	99.40130273822	0
229	337651	102.364435831788	0
230	2328	0.504627983166	52
230	4213	0.823603163258	52
230	6078	1.301577141748	52
230	9322	1.942548121859	52
230	18359	4.904240041137	52
230	26658	7.860932291093	52
230	36641	11.003893476984	52
230	38193	11.322347491527	52
230	40951	11.803450125101	52
230	43965	12.443638481685	52
230	52825	15.403497875307	52
230	61682	18.364400534314	52
230	70314	21.500292674612	52
230	72403	21.820619222095	52
230	75645	22.304335835784	52
230	78610	22.944486385385	52
230	86651	25.901210892954	52
230	95484	28.860948768094	52
230	105263	32.002674541001	52
230	107352	32.322174133186	52
230	109345	32.800537362834	52
230	112720	33.442251122361	52
230	121854	36.404531157112	52
230	130024	39.361714603972	52
230	139370	42.500761822396	52
230	141816	42.823437946471	52
230	144803	43.304912224412	52
230	146874	43.942345849248	52
230	156115	46.903509887955	52
230	164693	49.862507311148	52
230	173911	53.000908111976	52
230	176153	53.321649864448	52
230	178605	53.802641575655	52
230	181925	54.442942362567	52
230	190248	57.401366743679	52
230	198928	60.360776855919	52
230	208274	63.500301897394	52
230	211230	63.824659764491	52
230	212636	64.300023936901	52
230	215523	64.940350443809	52
230	224356	67.900671335098	52
230	234056	70.863694156482	52
230	243223	74.002645871365	52
230	245135	74.322888532288	52
230	248223	74.804900795202	52
230	250676	75.442711209728	52
230	258999	78.400158027217	52
230	267883	81.361154579627	52
230	278072	84.504034756431	52
230	279317	84.820766872213	52
230	281794	85.300463425927	52
230	284987	85.942830013079	52
230	293850	88.902358465348	52
230	302245	91.86057170499	52
230	312636	95.003951701761	52
230	314724	95.324966970686	52
230	316717	95.803301454573	52
230	319119	96.440401471748	52
230	327955	99.40130273822	52
230	337652	102.364435831788	52
231	2328	0.504627983166	72
231	4213	0.823603163258	72
231	6078	1.301577141748	72
231	9322	1.942548121859	72
231	18359	4.904240041137	72
231	26658	7.860932291093	72
231	36641	11.003893476984	72
231	38193	11.322347491527	72
231	40951	11.803450125101	72
231	43965	12.443638481685	72
231	52825	15.403497875307	72
231	61682	18.364400534314	72
231	70314	21.500292674612	72
231	72403	21.820619222095	72
231	75645	22.304335835784	72
231	78610	22.944486385385	72
231	86651	25.901210892954	72
231	95484	28.860948768094	72
231	105263	32.002674541001	72
231	107352	32.322174133186	72
231	109345	32.800537362834	72
231	112720	33.442251122361	72
231	121854	36.404531157112	72
231	130024	39.361714603972	72
231	139370	42.500761822396	72
231	141816	42.823437946471	72
231	144803	43.304912224412	72
231	146874	43.942345849248	72
231	156115	46.903509887955	72
231	164693	49.862507311148	72
231	173911	53.000908111976	72
231	176153	53.321649864448	72
231	178605	53.802641575655	72
231	181925	54.442942362567	72
231	190248	57.401366743679	72
231	198928	60.360776855919	72
231	208274	63.500301897394	72
231	211230	63.824659764491	72
231	212636	64.300023936901	72
231	215523	64.940350443809	72
231	224356	67.900671335098	72
231	234056	70.863694156482	72
231	243223	74.002645871365	72
231	245135	74.322888532288	72
231	248223	74.804900795202	72
231	250676	75.442711209728	72
231	258999	78.400158027217	72
231	267883	81.361154579627	72
231	278072	84.504034756431	72
231	279317	84.820766872213	72
231	281794	85.300463425927	72
231	284987	85.942830013079	72
231	293850	88.902358465348	72
231	302245	91.86057170499	72
231	312636	95.003951701761	72
231	314724	95.324966970686	72
231	316717	95.803301454573	72
231	319119	96.440401471748	72
231	327955	99.40130273822	72
231	337652	102.364435831788	72
232	2378	0.504785775772	52
232	3753	0.822073309706	52
232	6791	1.304794746346	52
232	8862	1.941414034797	52
232	18613	4.904912874784	52
232	26426	7.860660340548	52
232	35797	11.000048440868	52
232	38651	11.323227851206	52
232	41103	11.803656986709	52
232	43481	12.441783534449	52
232	52695	15.403058742088	52
232	61222	18.362513603818	52
232	71333	21.504836296529	52
232	72759	21.822158800627	52
232	75491	22.303981597066	52
232	77970	22.941747201477	52
232	87466	25.904637012765	52
232	95636	28.861722652314	52
232	104752	32.000048416589	52
232	107096	32.321147837202	52
232	109293	32.800233958933	52
232	112868	33.442629044792	52
232	121241	36.401226389717	52
232	130227	39.36274424632	52
232	140287	42.504883809781	52
232	141356	42.820837179091	52
232	144394	43.30262958321	52
232	147179	43.94353991177	52
232	155553	46.901090640087	52
232	164770	49.862791417092	52
232	174267	53.003008128298	52
232	176050	53.321368663135	52
232	178349	53.801251489308	52
232	182077	54.444142402477	52
232	190502	57.403109049702	52
232	199029	60.361063412027	52
232	208426	63.500769713991	52
232	211178	63.824384103095	52
232	213502	64.304134872258	52
232	216185	64.942615779961	52
232	225273	67.904046059482	52
232	233953	70.863308817974	52
232	242661	74.000269345501	52
232	244954	74.322271671207	52
232	247484	74.801719070175	52
232	250930	75.444226867689	52
232	259253	78.401216237744	52
232	268443	81.363473054537	52
232	278146	84.504520452097	52
232	279343	84.820774347085	52
232	281589	85.300042230705	52
232	285088	85.942921457503	52
232	294074	88.903385754453	52
232	303162	91.864508055366	52
232	312356	95.003260145903	52
232	314009	95.32084964331	52
232	317022	95.804363985738	52
232	319220	96.440641949552	52
232	328767	99.404155443165	52
232	337396	102.363736787308	52
233	2378	0.504785775772	0
233	3753	0.822073309706	0
233	6791	1.304794746346	0
233	8862	1.941414034797	0
233	18613	4.904912874784	0
233	26426	7.860660340548	0
233	35797	11.000048440868	0
233	38651	11.323227851206	0
233	41103	11.803656986709	0
233	43481	12.441783534449	0
233	52695	15.403058742088	0
233	61222	18.362513603818	0
233	71333	21.504836296529	0
233	72759	21.822158800627	0
233	75491	22.303981597066	0
233	77970	22.941747201477	0
233	87466	25.904637012765	0
233	95636	28.861722652314	0
233	104752	32.000048416589	0
233	107096	32.321147837202	0
233	109293	32.800233958933	0
233	112868	33.442629044792	0
233	121241	36.401226389717	0
233	130227	39.36274424632	0
233	140287	42.504883809781	0
233	141356	42.820837179091	0
233	144394	43.30262958321	0
233	147179	43.94353991177	0
233	155553	46.901090640087	0
233	164770	49.862791417092	0
233	174267	53.003008128298	0
233	176050	53.321368663135	0
233	178349	53.801251489308	0
233	182077	54.444142402477	0
233	190502	57.403109049702	0
233	199029	60.361063412027	0
233	208426	63.500769713991	0
233	211178	63.824384103095	0
233	213502	64.304134872258	0
233	216185	64.942615779961	0
233	225273	67.904046059482	0
233	233953	70.863308817974	0
233	242661	74.000269345501	0
233	244954	74.322271671207	0
233	247484	74.801719070175	0
233	250930	75.444226867689	0
233	259253	78.401216237744	0
233	268443	81.363473054537	0
233	278146	84.504520452097	0
233	279343	84.820774347085	0
233	281589	85.300042230705	0
233	285088	85.942921457503	0
233	294074	88.903385754453	0
233	303162	91.864508055366	0
233	312356	95.003260145903	0
233	314009	95.32084964331	0
233	317022	95.804363985738	0
233	319220	96.440641949552	0
233	328767	99.404155443165	0
233	337396	102.363736787308	0
234	2379	0.504785775772	52
234	3754	0.822073309706	52
234	6792	1.304794746346	52
234	8863	1.941414034797	52
234	18614	4.904912874784	52
234	26427	7.860660340548	52
234	35798	11.000048440868	52
234	38652	11.323227851206	52
234	41104	11.803656986709	52
234	43482	12.441783534449	52
234	52696	15.403058742088	52
234	61223	18.362513603818	52
234	71334	21.504836296529	52
234	72760	21.822158800627	52
234	75492	22.303981597066	52
234	77971	22.941747201477	52
234	87467	25.904637012765	52
234	95637	28.861722652314	52
234	104753	32.000048416589	52
234	107097	32.321147837202	52
234	109294	32.800233958933	52
234	112869	33.442629044792	52
234	121242	36.401226389717	52
234	130228	39.36274424632	52
234	140288	42.504883809781	52
234	141357	42.820837179091	52
234	144395	43.30262958321	52
234	147180	43.94353991177	52
234	155554	46.901090640087	52
234	164771	49.862791417092	52
234	174268	53.003008128298	52
234	176051	53.321368663135	52
234	178350	53.801251489308	52
234	182078	54.444142402477	52
234	190503	57.403109049702	52
234	199030	60.361063412027	52
234	208427	63.500769713991	52
234	211179	63.824384103095	52
234	213503	64.304134872258	52
234	216186	64.942615779961	52
234	225274	67.904046059482	52
234	233954	70.863308817974	52
234	242662	74.000269345501	52
234	244955	74.322271671207	52
234	247485	74.801719070175	52
234	250931	75.444226867689	52
234	259254	78.401216237744	52
234	268444	81.363473054537	52
234	278147	84.504520452097	52
234	279344	84.820774347085	52
234	281590	85.300042230705	52
234	285089	85.942921457503	52
234	294075	88.903385754453	52
234	303163	91.864508055366	52
234	312357	95.003260145903	52
234	314010	95.32084964331	52
234	317023	95.804363985738	52
234	319221	96.440641949552	52
234	328768	99.404155443165	52
234	337397	102.363736787308	52
235	2379	0.504785775772	72
235	3754	0.822073309706	72
235	6792	1.304794746346	72
235	8863	1.941414034797	72
235	18614	4.904912874784	72
235	26427	7.860660340548	72
235	35798	11.000048440868	72
235	38652	11.323227851206	72
235	41104	11.803656986709	72
235	43482	12.441783534449	72
235	52696	15.403058742088	72
235	61223	18.362513603818	72
235	71334	21.504836296529	72
235	72760	21.822158800627	72
235	75492	22.303981597066	72
235	77971	22.941747201477	72
235	87467	25.904637012765	72
235	95637	28.861722652314	72
235	104753	32.000048416589	72
235	107097	32.321147837202	72
235	109294	32.800233958933	72
235	112869	33.442629044792	72
235	121242	36.401226389717	72
235	130228	39.36274424632	72
235	140288	42.504883809781	72
235	141357	42.820837179091	72
235	144395	43.30262958321	72
235	147180	43.94353991177	72
235	155554	46.901090640087	72
235	164771	49.862791417092	72
235	174268	53.003008128298	72
235	176051	53.321368663135	72
235	178350	53.801251489308	72
235	182078	54.444142402477	72
235	190503	57.403109049702	72
235	199030	60.361063412027	72
235	208427	63.500769713991	72
235	211179	63.824384103095	72
235	213503	64.304134872258	72
235	216186	64.942615779961	72
235	225274	67.904046059482	72
235	233954	70.863308817974	72
235	242662	74.000269345501	72
235	244955	74.322271671207	72
235	247485	74.801719070175	72
235	250931	75.444226867689	72
235	259254	78.401216237744	72
235	268444	81.363473054537	72
235	278147	84.504520452097	72
235	279344	84.820774347085	72
235	281590	85.300042230705	72
235	285089	85.942921457503	72
235	294075	88.903385754453	72
235	303163	91.864508055366	72
235	312357	95.003260145903	72
235	314010	95.32084964331	72
235	317023	95.804363985738	72
235	319221	96.440641949552	72
235	328768	99.404155443165	72
235	337397	102.363736787308	72
236	2429	0.504893091714	52
236	4263	0.82368459089	52
236	5924	1.300806547556	52
236	9270	1.942404467681	52
236	18205	4.903610278026	52
236	26987	7.862315750982	52
236	36052	11.000985271388	52
236	38549	11.322782147132	52
236	41256	11.803981957374	52
236	44066	12.444226788422	52
236	52491	15.402087431859	52
236	60916	18.360604596805	52
236	70442	21.500586577833	52
236	72861	21.823126790993	52
236	74777	22.300095614488	52
236	78072	22.941941598011	52
236	87415	25.904046824854	52
236	96350	28.86439300187	52
236	105313	32.002795868907	52
236	107123	32.321152058531	52
236	109881	32.802943194995	52
236	112769	33.442263652483	52
236	122057	36.404989970018	52
236	130380	39.363236089854	52
236	139828	42.503387541804	52
236	141305	42.820767912552	52
236	144088	43.3013565305	52
236	147206	43.943563197327	52
236	156471	46.904539492313	52
236	164590	49.862023216616	52
236	174777	53.004450557686	52
236	176203	53.322032467364	52
236	178655	53.802810330562	52
236	181006	54.44002373754	52
236	190859	57.404209078677	52
236	199080	60.361118588824	52
236	208171	63.500031017093	52
236	210719	63.822713913226	52
236	213349	64.30360521704	52
236	215471	64.940292837038	52
236	225147	67.903526533869	52
236	233392	70.860647657003	52
236	243732	74.004815469433	52
236	245719	74.324751681023	52
236	247865	74.803357137735	52
236	250165	75.440888949353	52
236	259049	78.400268314534	52
236	267831	81.360605668662	52
236	277432	84.502002552334	52
236	279520	84.821282841981	52
236	282330	85.304086242949	52
236	284629	85.940583326108	52
236	293972	88.903045396557	52
236	302907	91.863866205141	52
236	312074	95.002142410771	52
236	314240	95.323094950712	52
236	316869	95.804024470146	52
236	319322	96.440771817236	52
236	328206	99.401960899406	52
236	337804	102.364816872099	52
237	2429	0.504893091714	0
237	4263	0.82368459089	0
237	5924	1.300806547556	0
237	9270	1.942404467681	0
237	18205	4.903610278026	0
237	26987	7.862315750982	0
237	36052	11.000985271388	0
237	38549	11.322782147132	0
237	41256	11.803981957374	0
237	44066	12.444226788422	0
237	52491	15.402087431859	0
237	60916	18.360604596805	0
237	70442	21.500586577833	0
237	72861	21.823126790993	0
237	74777	22.300095614488	0
237	78072	22.941941598011	0
237	87415	25.904046824854	0
237	96350	28.86439300187	0
237	105313	32.002795868907	0
237	107123	32.321152058531	0
237	109881	32.802943194995	0
237	112769	33.442263652483	0
237	122057	36.404989970018	0
237	130380	39.363236089854	0
237	139828	42.503387541804	0
237	141305	42.820767912552	0
237	144088	43.3013565305	0
237	147206	43.943563197327	0
237	156471	46.904539492313	0
237	164590	49.862023216616	0
237	174777	53.004450557686	0
237	176203	53.322032467364	0
237	178655	53.802810330562	0
237	181006	54.44002373754	0
237	190859	57.404209078677	0
237	199080	60.361118588824	0
237	208171	63.500031017093	0
237	210719	63.822713913226	0
237	213349	64.30360521704	0
237	215471	64.940292837038	0
237	225147	67.903526533869	0
237	233392	70.860647657003	0
237	243732	74.004815469433	0
237	245719	74.324751681023	0
237	247865	74.803357137735	0
237	250165	75.440888949353	0
237	259049	78.400268314534	0
237	267831	81.360605668662	0
237	277432	84.502002552334	0
237	279520	84.821282841981	0
237	282330	85.304086242949	0
237	284629	85.940583326108	0
237	293972	88.903045396557	0
237	302907	91.863866205141	0
237	312074	95.002142410771	0
237	314240	95.323094950712	0
237	316869	95.804024470146	0
237	319322	96.440771817236	0
237	328206	99.401960899406	0
237	337804	102.364816872099	0
238	2430	0.504893091714	52
238	4264	0.82368459089	52
238	5925	1.300806547556	52
238	9271	1.942404467681	52
238	18206	4.903610278026	52
238	26988	7.862315750982	52
238	36053	11.000985271388	52
238	38550	11.322782147132	52
238	41257	11.803981957374	52
238	44067	12.444226788422	52
238	52492	15.402087431859	52
238	60917	18.360604596805	52
238	70443	21.500586577833	52
238	72862	21.823126790993	52
238	74778	22.300095614488	52
238	78073	22.941941598011	52
238	87416	25.904046824854	52
238	96351	28.86439300187	52
238	105314	32.002795868907	52
238	107124	32.321152058531	52
238	109882	32.802943194995	52
238	112770	33.442263652483	52
238	122058	36.404989970018	52
238	130381	39.363236089854	52
238	139829	42.503387541804	52
238	141306	42.820767912552	52
238	144089	43.3013565305	52
238	147207	43.943563197327	52
238	156472	46.904539492313	52
238	164591	49.862023216616	52
238	174778	53.004450557686	52
238	176204	53.322032467364	52
238	178656	53.802810330562	52
238	181007	54.44002373754	52
238	190860	57.404209078677	52
238	199081	60.361118588824	52
238	208172	63.500031017093	52
238	210720	63.822713913226	52
238	213350	64.30360521704	52
238	215472	64.940292837038	52
238	225148	67.903526533869	52
238	233393	70.860647657003	52
238	243733	74.004815469433	52
238	245720	74.324751681023	52
238	247866	74.803357137735	52
238	250166	75.440888949353	52
238	259050	78.400268314534	52
238	267832	81.360605668662	52
238	277433	84.502002552334	52
238	279521	84.821282841981	52
238	282331	85.304086242949	52
238	284630	85.940583326108	52
238	293973	88.903045396557	52
238	302908	91.863866205141	52
238	312075	95.002142410771	52
238	314241	95.323094950712	52
238	316870	95.804024470146	52
238	319323	96.440771817236	52
238	328207	99.401960899406	52
238	337805	102.364816872099	52
239	2430	0.504893091714	72
239	4264	0.82368459089	72
239	5925	1.300806547556	72
239	9271	1.942404467681	72
239	18206	4.903610278026	72
239	26988	7.862315750982	72
239	36053	11.000985271388	72
239	38550	11.322782147132	72
239	41257	11.803981957374	72
239	44067	12.444226788422	72
239	52492	15.402087431859	72
239	60917	18.360604596805	72
239	70443	21.500586577833	72
239	72862	21.823126790993	72
239	74778	22.300095614488	72
239	78073	22.941941598011	72
239	87416	25.904046824854	72
239	96351	28.86439300187	72
239	105314	32.002795868907	72
239	107124	32.321152058531	72
239	109882	32.802943194995	72
239	112770	33.442263652483	72
239	122058	36.404989970018	72
239	130381	39.363236089854	72
239	139829	42.503387541804	72
239	141306	42.820767912552	72
239	144089	43.3013565305	72
239	147207	43.943563197327	72
239	156472	46.904539492313	72
239	164591	49.862023216616	72
239	174778	53.004450557686	72
239	176204	53.322032467364	72
239	178656	53.802810330562	72
239	181007	54.44002373754	72
239	190860	57.404209078677	72
239	199081	60.361118588824	72
239	208172	63.500031017093	72
239	210720	63.822713913226	72
239	213350	64.30360521704	72
239	215472	64.940292837038	72
239	225148	67.903526533869	72
239	233393	70.860647657003	72
239	243733	74.004815469433	72
239	245720	74.324751681023	72
239	247866	74.803357137735	72
239	250166	75.440888949353	72
239	259050	78.400268314534	72
239	267832	81.360605668662	72
239	277433	84.502002552334	72
239	279521	84.821282841981	72
239	282331	85.304086242949	72
239	284630	85.940583326108	72
239	293973	88.903045396557	72
239	302908	91.863866205141	72
239	312075	95.002142410771	72
239	314241	95.323094950712	72
239	316870	95.804024470146	72
239	319323	96.440771817236	72
239	328207	99.401960899406	72
239	337805	102.364816872099	72

