version 2
run MoBANMobility1-0-20181219-19:01:35-28446
attr configname MoBANMobility1
attr datetime 20181219-19:01:35
attr experiment MoBANMobility1
attr inifile omnetpp.ini
attr iterationvars ""
attr iterationvarsf ""
attr measurement ""
attr network AODVNetwork
attr processid 28446
attr repetition 0
attr replication #0
attr resultdir results
attr runnumber 0
attr seedset 0
param **.constraintAreaMaxX 1000m
param **.constraintAreaMaxY 1000m
param **.constraintAreaMaxZ 1000m
param **.coordinator[*].postureSpecFile "xmldoc(\"postures1.xml\")"
param **.coordinator[*].configFile "xmldoc(\"configMoBAN1.xml\")"
param **.coordinator[*].useMobilityPattern false
param **.coordinator[0].mobilityPatternFile "\"MoBAN_Pattern_in0.txt\""
param **.node[*].mobility.typename "\"MoBanLocal\""
param **.node[*].mobility.coordinatorIndex 0
param *.numHosts 20
param **.wlan[*].typename "\"AckingWirelessInterface\""
param **.wlan[*].bitrate 20Mbps
param **.wlan[*].mac.headerLength 20B
param **.wlan[*].radio.typename "\"UnitDiskRadio\""
param **.wlan[*].radio.transmitter.headerLength 96b
param **.wlan[*].radio.transmitter.communicationRange 50m
param **.wlan[*].radio.transmitter.interferenceRange 50m
param **.wlan[*].radio.transmitter.detectionRange 50m
param **.wlan[*].radio.receiver.ignoreInterference true
param **.aodv.activeRouteTimeout 1s
param **.radioMedium.rangeFilter "\"communicationRange\""
param **.refillPeriod 1s
param **.radioMedium.mediumLimitCache.communicationRange 50m
param **.radioMedium.neighborCache.typename "\"NeighborListNeighborCache\""
param **.radioMedium.neighborCache.range 50m
param **.constraintAreaMinX 0m
param **.constraintAreaMinY 0m
param **.constraintAreaMinZ 0m
param **.constraintAreaMaxX 400m
param **.constraintAreaMaxY 400m
param **.constraintAreaMaxZ 0m
param **.updateInterval 0.01s
param **.wlan[*].mgmt.frameCapacity 10
param **.wlan[*].mac.retryLimit 7
param **.hasStatus true
param *.hasVisualizer true
param *.visualizer.mobilityVisualizer.moduleFilter "\"**.mobility\""
param *.visualizer.mobilityVisualizer.displayMovementTrails false
param *.visualizer.mediumVisualizer.displayCommunicationRanges true
param *.visualizer.mediumVisualizer.displayInterferenceRanges false
param *.visualizer.mediumVisualizer.displaySignals false
param *.configurator.addStaticRoutes false
param *.host*.numApps 1
param *.host*.app[0].typename "\"UdpBasicApp\""
param *.host*.app[0].localPort 100
param *.host*.app[0].sendInterval 0.5s
param *.host*.app[0].messageLength 1000B
param **.hasIpv4 true
param **.hasIpv6 false
param **.hasGn false
param *.host*.app[0].destAddresses "\"host[*]\""
param *.host*.app[0].destPort 1000

vector 0 AODVNetwork.host[0].wlan[0].queue queueLength:vector ETV
attr interpolationmode sample-hold
attr title "queue length, vector"
vector 1 AODVNetwork.host[0].wlan[0].radio radioMode:vector ETV
attr interpolationmode sample-hold
attr source radioModeChanged
attr title "Radio mode, vector"
vector 2 AODVNetwork.host[1].wlan[0].queue queueLength:vector ETV
attr interpolationmode sample-hold
attr title "queue length, vector"
vector 3 AODVNetwork.host[1].wlan[0].radio radioMode:vector ETV
attr interpolationmode sample-hold
attr source radioModeChanged
attr title "Radio mode, vector"
vector 4 AODVNetwork.host[2].wlan[0].queue queueLength:vector ETV
attr interpolationmode sample-hold
attr title "queue length, vector"
vector 5 AODVNetwork.host[2].wlan[0].radio radioMode:vector ETV
attr interpolationmode sample-hold
attr source radioModeChanged
attr title "Radio mode, vector"
vector 6 AODVNetwork.host[3].wlan[0].queue queueLength:vector ETV
attr interpolationmode sample-hold
attr title "queue length, vector"
vector 7 AODVNetwork.host[3].wlan[0].radio radioMode:vector ETV
attr interpolationmode sample-hold
attr source radioModeChanged
attr title "Radio mode, vector"
vector 8 AODVNetwork.host[4].wlan[0].queue queueLength:vector ETV
attr interpolationmode sample-hold
attr title "queue length, vector"
vector 9 AODVNetwork.host[4].wlan[0].radio radioMode:vector ETV
attr interpolationmode sample-hold
attr source radioModeChanged
attr title "Radio mode, vector"
vector 10 AODVNetwork.host[5].wlan[0].queue queueLength:vector ETV
attr interpolationmode sample-hold
attr title "queue length, vector"
vector 11 AODVNetwork.host[5].wlan[0].radio radioMode:vector ETV
attr interpolationmode sample-hold
attr source radioModeChanged
attr title "Radio mode, vector"
vector 12 AODVNetwork.host[6].wlan[0].queue queueLength:vector ETV
attr interpolationmode sample-hold
attr title "queue length, vector"
vector 13 AODVNetwork.host[6].wlan[0].radio radioMode:vector ETV
attr interpolationmode sample-hold
attr source radioModeChanged
attr title "Radio mode, vector"
vector 14 AODVNetwork.host[7].wlan[0].queue queueLength:vector ETV
attr interpolationmode sample-hold
attr title "queue length, vector"
vector 15 AODVNetwork.host[7].wlan[0].radio radioMode:vector ETV
attr interpolationmode sample-hold
attr source radioModeChanged
attr title "Radio mode, vector"
vector 16 AODVNetwork.host[8].wlan[0].queue queueLength:vector ETV
attr interpolationmode sample-hold
attr title "queue length, vector"
vector 17 AODVNetwork.host[8].wlan[0].radio radioMode:vector ETV
attr interpolationmode sample-hold
attr source radioModeChanged
attr title "Radio mode, vector"
vector 18 AODVNetwork.host[9].wlan[0].queue queueLength:vector ETV
attr interpolationmode sample-hold
attr title "queue length, vector"
vector 19 AODVNetwork.host[9].wlan[0].radio radioMode:vector ETV
attr interpolationmode sample-hold
attr source radioModeChanged
attr title "Radio mode, vector"
vector 20 AODVNetwork.host[10].wlan[0].queue queueLength:vector ETV
attr interpolationmode sample-hold
attr title "queue length, vector"
vector 21 AODVNetwork.host[10].wlan[0].radio radioMode:vector ETV
attr interpolationmode sample-hold
attr source radioModeChanged
attr title "Radio mode, vector"
vector 22 AODVNetwork.host[11].wlan[0].queue queueLength:vector ETV
attr interpolationmode sample-hold
attr title "queue length, vector"
vector 23 AODVNetwork.host[11].wlan[0].radio radioMode:vector ETV
attr interpolationmode sample-hold
attr source radioModeChanged
attr title "Radio mode, vector"
vector 24 AODVNetwork.host[12].wlan[0].queue queueLength:vector ETV
attr interpolationmode sample-hold
attr title "queue length, vector"
vector 25 AODVNetwork.host[12].wlan[0].radio radioMode:vector ETV
attr interpolationmode sample-hold
attr source radioModeChanged
attr title "Radio mode, vector"
vector 26 AODVNetwork.host[13].wlan[0].queue queueLength:vector ETV
attr interpolationmode sample-hold
attr title "queue length, vector"
vector 27 AODVNetwork.host[13].wlan[0].radio radioMode:vector ETV
attr interpolationmode sample-hold
attr source radioModeChanged
attr title "Radio mode, vector"
vector 28 AODVNetwork.host[14].wlan[0].queue queueLength:vector ETV
attr interpolationmode sample-hold
attr title "queue length, vector"
vector 29 AODVNetwork.host[14].wlan[0].radio radioMode:vector ETV
attr interpolationmode sample-hold
attr source radioModeChanged
attr title "Radio mode, vector"
vector 30 AODVNetwork.host[15].wlan[0].queue queueLength:vector ETV
attr interpolationmode sample-hold
attr title "queue length, vector"
vector 31 AODVNetwork.host[15].wlan[0].radio radioMode:vector ETV
attr interpolationmode sample-hold
attr source radioModeChanged
attr title "Radio mode, vector"
vector 32 AODVNetwork.host[16].wlan[0].queue queueLength:vector ETV
attr interpolationmode sample-hold
attr title "queue length, vector"
vector 33 AODVNetwork.host[16].wlan[0].radio radioMode:vector ETV
attr interpolationmode sample-hold
attr source radioModeChanged
attr title "Radio mode, vector"
vector 34 AODVNetwork.host[17].wlan[0].queue queueLength:vector ETV
attr interpolationmode sample-hold
attr title "queue length, vector"
vector 35 AODVNetwork.host[17].wlan[0].radio radioMode:vector ETV
attr interpolationmode sample-hold
attr source radioModeChanged
attr title "Radio mode, vector"
vector 36 AODVNetwork.host[18].wlan[0].queue queueLength:vector ETV
attr interpolationmode sample-hold
attr title "queue length, vector"
vector 37 AODVNetwork.host[18].wlan[0].radio radioMode:vector ETV
attr interpolationmode sample-hold
attr source radioModeChanged
attr title "Radio mode, vector"
vector 38 AODVNetwork.host[19].wlan[0].queue queueLength:vector ETV
attr interpolationmode sample-hold
attr title "queue length, vector"
vector 39 AODVNetwork.host[19].wlan[0].radio radioMode:vector ETV
attr interpolationmode sample-hold
attr source radioModeChanged
attr title "Radio mode, vector"
vector 40 AODVNetwork.host[0].wlan[0].radio receptionState:vector ETV
attr interpolationmode sample-hold
attr source receptionStateChanged
attr title "Radio reception state, vector"
vector 41 AODVNetwork.host[0].wlan[0].radio transmissionState:vector ETV
attr interpolationmode sample-hold
attr source transmissionStateChanged
attr title "Radio transmission state, vector"
vector 42 AODVNetwork.host[1].wlan[0].radio receptionState:vector ETV
attr interpolationmode sample-hold
attr source receptionStateChanged
attr title "Radio reception state, vector"
vector 43 AODVNetwork.host[1].wlan[0].radio transmissionState:vector ETV
attr interpolationmode sample-hold
attr source transmissionStateChanged
attr title "Radio transmission state, vector"
vector 44 AODVNetwork.host[2].wlan[0].radio receptionState:vector ETV
attr interpolationmode sample-hold
attr source receptionStateChanged
attr title "Radio reception state, vector"
vector 45 AODVNetwork.host[2].wlan[0].radio transmissionState:vector ETV
attr interpolationmode sample-hold
attr source transmissionStateChanged
attr title "Radio transmission state, vector"
vector 46 AODVNetwork.host[3].wlan[0].radio receptionState:vector ETV
attr interpolationmode sample-hold
attr source receptionStateChanged
attr title "Radio reception state, vector"
vector 47 AODVNetwork.host[3].wlan[0].radio transmissionState:vector ETV
attr interpolationmode sample-hold
attr source transmissionStateChanged
attr title "Radio transmission state, vector"
vector 48 AODVNetwork.host[4].wlan[0].radio receptionState:vector ETV
attr interpolationmode sample-hold
attr source receptionStateChanged
attr title "Radio reception state, vector"
vector 49 AODVNetwork.host[4].wlan[0].radio transmissionState:vector ETV
attr interpolationmode sample-hold
attr source transmissionStateChanged
attr title "Radio transmission state, vector"
vector 50 AODVNetwork.host[5].wlan[0].radio receptionState:vector ETV
attr interpolationmode sample-hold
attr source receptionStateChanged
attr title "Radio reception state, vector"
vector 51 AODVNetwork.host[5].wlan[0].radio transmissionState:vector ETV
attr interpolationmode sample-hold
attr source transmissionStateChanged
attr title "Radio transmission state, vector"
vector 52 AODVNetwork.host[6].wlan[0].radio receptionState:vector ETV
attr interpolationmode sample-hold
attr source receptionStateChanged
attr title "Radio reception state, vector"
vector 53 AODVNetwork.host[6].wlan[0].radio transmissionState:vector ETV
attr interpolationmode sample-hold
attr source transmissionStateChanged
attr title "Radio transmission state, vector"
vector 54 AODVNetwork.host[7].wlan[0].radio receptionState:vector ETV
attr interpolationmode sample-hold
attr source receptionStateChanged
attr title "Radio reception state, vector"
vector 55 AODVNetwork.host[7].wlan[0].radio transmissionState:vector ETV
attr interpolationmode sample-hold
attr source transmissionStateChanged
attr title "Radio transmission state, vector"
vector 56 AODVNetwork.host[8].wlan[0].radio receptionState:vector ETV
attr interpolationmode sample-hold
attr source receptionStateChanged
attr title "Radio reception state, vector"
vector 57 AODVNetwork.host[8].wlan[0].radio transmissionState:vector ETV
attr interpolationmode sample-hold
attr source transmissionStateChanged
attr title "Radio transmission state, vector"
vector 58 AODVNetwork.host[9].wlan[0].radio receptionState:vector ETV
attr interpolationmode sample-hold
attr source receptionStateChanged
attr title "Radio reception state, vector"
vector 59 AODVNetwork.host[9].wlan[0].radio transmissionState:vector ETV
attr interpolationmode sample-hold
attr source transmissionStateChanged
attr title "Radio transmission state, vector"
vector 60 AODVNetwork.host[10].wlan[0].radio receptionState:vector ETV
attr interpolationmode sample-hold
attr source receptionStateChanged
attr title "Radio reception state, vector"
vector 61 AODVNetwork.host[10].wlan[0].radio transmissionState:vector ETV
attr interpolationmode sample-hold
attr source transmissionStateChanged
attr title "Radio transmission state, vector"
vector 62 AODVNetwork.host[11].wlan[0].radio receptionState:vector ETV
attr interpolationmode sample-hold
attr source receptionStateChanged
attr title "Radio reception state, vector"
vector 63 AODVNetwork.host[11].wlan[0].radio transmissionState:vector ETV
attr interpolationmode sample-hold
attr source transmissionStateChanged
attr title "Radio transmission state, vector"
vector 64 AODVNetwork.host[12].wlan[0].radio receptionState:vector ETV
attr interpolationmode sample-hold
attr source receptionStateChanged
attr title "Radio reception state, vector"
vector 65 AODVNetwork.host[12].wlan[0].radio transmissionState:vector ETV
attr interpolationmode sample-hold
attr source transmissionStateChanged
attr title "Radio transmission state, vector"
vector 66 AODVNetwork.host[13].wlan[0].radio receptionState:vector ETV
attr interpolationmode sample-hold
attr source receptionStateChanged
attr title "Radio reception state, vector"
vector 67 AODVNetwork.host[13].wlan[0].radio transmissionState:vector ETV
attr interpolationmode sample-hold
attr source transmissionStateChanged
attr title "Radio transmission state, vector"
vector 68 AODVNetwork.host[14].wlan[0].radio receptionState:vector ETV
attr interpolationmode sample-hold
attr source receptionStateChanged
attr title "Radio reception state, vector"
vector 69 AODVNetwork.host[14].wlan[0].radio transmissionState:vector ETV
attr interpolationmode sample-hold
attr source transmissionStateChanged
attr title "Radio transmission state, vector"
vector 70 AODVNetwork.host[15].wlan[0].radio receptionState:vector ETV
attr interpolationmode sample-hold
attr source receptionStateChanged
attr title "Radio reception state, vector"
vector 71 AODVNetwork.host[15].wlan[0].radio transmissionState:vector ETV
attr interpolationmode sample-hold
attr source transmissionStateChanged
attr title "Radio transmission state, vector"
vector 72 AODVNetwork.host[16].wlan[0].radio receptionState:vector ETV
attr interpolationmode sample-hold
attr source receptionStateChanged
attr title "Radio reception state, vector"
vector 73 AODVNetwork.host[16].wlan[0].radio transmissionState:vector ETV
attr interpolationmode sample-hold
attr source transmissionStateChanged
attr title "Radio transmission state, vector"
vector 74 AODVNetwork.host[17].wlan[0].radio receptionState:vector ETV
attr interpolationmode sample-hold
attr source receptionStateChanged
attr title "Radio reception state, vector"
vector 75 AODVNetwork.host[17].wlan[0].radio transmissionState:vector ETV
attr interpolationmode sample-hold
attr source transmissionStateChanged
attr title "Radio transmission state, vector"
vector 76 AODVNetwork.host[18].wlan[0].radio receptionState:vector ETV
attr interpolationmode sample-hold
attr source receptionStateChanged
attr title "Radio reception state, vector"
vector 77 AODVNetwork.host[18].wlan[0].radio transmissionState:vector ETV
attr interpolationmode sample-hold
attr source transmissionStateChanged
attr title "Radio transmission state, vector"
vector 78 AODVNetwork.host[19].wlan[0].radio receptionState:vector ETV
attr interpolationmode sample-hold
attr source receptionStateChanged
attr title "Radio reception state, vector"
vector 79 AODVNetwork.host[19].wlan[0].radio transmissionState:vector ETV
attr interpolationmode sample-hold
attr source transmissionStateChanged
attr title "Radio transmission state, vector"
vector 80 AODVNetwork.host[0].app[0] packetSent:vector(packetBytes) ETV
attr interpolationmode none
attr source packetSent
attr title "packets sent, vector(packetBytes)"
vector 81 AODVNetwork.host[1].app[0] packetSent:vector(packetBytes) ETV
attr interpolationmode none
attr source packetSent
attr title "packets sent, vector(packetBytes)"
vector 82 AODVNetwork.host[2].app[0] packetSent:vector(packetBytes) ETV
attr interpolationmode none
attr source packetSent
attr title "packets sent, vector(packetBytes)"
vector 83 AODVNetwork.host[3].app[0] packetSent:vector(packetBytes) ETV
attr interpolationmode none
attr source packetSent
attr title "packets sent, vector(packetBytes)"
vector 84 AODVNetwork.host[4].app[0] packetSent:vector(packetBytes) ETV
attr interpolationmode none
attr source packetSent
attr title "packets sent, vector(packetBytes)"
vector 85 AODVNetwork.host[5].app[0] packetSent:vector(packetBytes) ETV
attr interpolationmode none
attr source packetSent
attr title "packets sent, vector(packetBytes)"
vector 86 AODVNetwork.host[6].app[0] packetSent:vector(packetBytes) ETV
attr interpolationmode none
attr source packetSent
attr title "packets sent, vector(packetBytes)"
vector 87 AODVNetwork.host[7].app[0] packetSent:vector(packetBytes) ETV
attr interpolationmode none
attr source packetSent
attr title "packets sent, vector(packetBytes)"
vector 88 AODVNetwork.host[8].app[0] packetSent:vector(packetBytes) ETV
attr interpolationmode none
attr source packetSent
attr title "packets sent, vector(packetBytes)"
vector 89 AODVNetwork.host[9].app[0] packetSent:vector(packetBytes) ETV
attr interpolationmode none
attr source packetSent
attr title "packets sent, vector(packetBytes)"
vector 90 AODVNetwork.host[10].app[0] packetSent:vector(packetBytes) ETV
attr interpolationmode none
attr source packetSent
attr title "packets sent, vector(packetBytes)"
vector 91 AODVNetwork.host[11].app[0] packetSent:vector(packetBytes) ETV
attr interpolationmode none
attr source packetSent
attr title "packets sent, vector(packetBytes)"
vector 92 AODVNetwork.host[12].app[0] packetSent:vector(packetBytes) ETV
attr interpolationmode none
attr source packetSent
attr title "packets sent, vector(packetBytes)"
vector 93 AODVNetwork.host[13].app[0] packetSent:vector(packetBytes) ETV
attr interpolationmode none
attr source packetSent
attr title "packets sent, vector(packetBytes)"
vector 94 AODVNetwork.host[14].app[0] packetSent:vector(packetBytes) ETV
attr interpolationmode none
attr source packetSent
attr title "packets sent, vector(packetBytes)"
vector 95 AODVNetwork.host[15].app[0] packetSent:vector(packetBytes) ETV
attr interpolationmode none
attr source packetSent
attr title "packets sent, vector(packetBytes)"
vector 96 AODVNetwork.host[16].app[0] packetSent:vector(packetBytes) ETV
attr interpolationmode none
attr source packetSent
attr title "packets sent, vector(packetBytes)"
vector 97 AODVNetwork.host[17].app[0] packetSent:vector(packetBytes) ETV
attr interpolationmode none
attr source packetSent
attr title "packets sent, vector(packetBytes)"
vector 98 AODVNetwork.host[18].app[0] packetSent:vector(packetBytes) ETV
attr interpolationmode none
attr source packetSent
attr title "packets sent, vector(packetBytes)"
vector 99 AODVNetwork.host[19].app[0] packetSent:vector(packetBytes) ETV
attr interpolationmode none
attr source packetSent
attr title "packets sent, vector(packetBytes)"
vector 100 AODVNetwork.host[0].udp packetSent:vector(packetBytes) ETV
attr interpolationmode none
attr source packetSent
attr title "packets sent, vector(packetBytes)"
vector 101 AODVNetwork.host[1].udp packetSent:vector(packetBytes) ETV
attr interpolationmode none
attr source packetSent
attr title "packets sent, vector(packetBytes)"
vector 102 AODVNetwork.host[2].udp packetSent:vector(packetBytes) ETV
attr interpolationmode none
attr source packetSent
attr title "packets sent, vector(packetBytes)"
vector 103 AODVNetwork.host[3].udp packetSent:vector(packetBytes) ETV
attr interpolationmode none
attr source packetSent
attr title "packets sent, vector(packetBytes)"
vector 104 AODVNetwork.host[4].udp packetSent:vector(packetBytes) ETV
attr interpolationmode none
attr source packetSent
attr title "packets sent, vector(packetBytes)"
vector 105 AODVNetwork.host[5].udp packetSent:vector(packetBytes) ETV
attr interpolationmode none
attr source packetSent
attr title "packets sent, vector(packetBytes)"
vector 106 AODVNetwork.host[6].udp packetSent:vector(packetBytes) ETV
attr interpolationmode none
attr source packetSent
attr title "packets sent, vector(packetBytes)"
vector 107 AODVNetwork.host[7].udp packetSent:vector(packetBytes) ETV
attr interpolationmode none
attr source packetSent
attr title "packets sent, vector(packetBytes)"
vector 108 AODVNetwork.host[8].udp packetSent:vector(packetBytes) ETV
attr interpolationmode none
attr source packetSent
attr title "packets sent, vector(packetBytes)"
vector 109 AODVNetwork.host[9].udp packetSent:vector(packetBytes) ETV
attr interpolationmode none
attr source packetSent
attr title "packets sent, vector(packetBytes)"
vector 110 AODVNetwork.host[10].udp packetSent:vector(packetBytes) ETV
attr interpolationmode none
attr source packetSent
attr title "packets sent, vector(packetBytes)"
vector 111 AODVNetwork.host[11].udp packetSent:vector(packetBytes) ETV
attr interpolationmode none
attr source packetSent
attr title "packets sent, vector(packetBytes)"
vector 112 AODVNetwork.host[12].udp packetSent:vector(packetBytes) ETV
attr interpolationmode none
attr source packetSent
attr title "packets sent, vector(packetBytes)"
vector 113 AODVNetwork.host[13].udp packetSent:vector(packetBytes) ETV
attr interpolationmode none
attr source packetSent
attr title "packets sent, vector(packetBytes)"
vector 114 AODVNetwork.host[14].udp packetSent:vector(packetBytes) ETV
attr interpolationmode none
attr source packetSent
attr title "packets sent, vector(packetBytes)"
vector 115 AODVNetwork.host[15].udp packetSent:vector(packetBytes) ETV
attr interpolationmode none
attr source packetSent
attr title "packets sent, vector(packetBytes)"
vector 116 AODVNetwork.host[16].udp packetSent:vector(packetBytes) ETV
attr interpolationmode none
attr source packetSent
attr title "packets sent, vector(packetBytes)"
vector 117 AODVNetwork.host[17].udp packetSent:vector(packetBytes) ETV
attr interpolationmode none
attr source packetSent
attr title "packets sent, vector(packetBytes)"
vector 118 AODVNetwork.host[18].udp packetSent:vector(packetBytes) ETV
attr interpolationmode none
attr source packetSent
attr title "packets sent, vector(packetBytes)"
vector 119 AODVNetwork.host[19].udp packetSent:vector(packetBytes) ETV
attr interpolationmode none
attr source packetSent
attr title "packets sent, vector(packetBytes)"
vector 120 AODVNetwork.host[0].lo[0].lo rcvdPkFromHl:vector(packetBytes) ETV
attr interpolationmode none
attr source packetReceivedFromUpper
attr title "packets received from higher layer, vector(packetBytes)"
vector 121 AODVNetwork.host[0].lo[0].lo passedUpPk:vector(packetBytes) ETV
attr interpolationmode none
attr source packetSentToUpper
attr title "packets passed to higher layer, vector(packetBytes)"
vector 122 AODVNetwork.host[0].udp packetReceived:vector(packetBytes) ETV
attr interpolationmode none
attr source packetReceived
attr title "packets received, vector(packetBytes)"
vector 123 AODVNetwork.host[0].udp droppedPkWrongPort:vector(count) ETV
attr interpolationmode none
attr source packetDropReasonIsNoPortFound(packetDropped)
attr title "packets dropped (wrong port), vector(count)"
vector 124 AODVNetwork.host[13].wlan[0].queue packetReceived:vector(packetBytes) ETV
attr interpolationmode none
attr title "received packets, vector(packetBytes)"
vector 125 AODVNetwork.host[13].wlan[0].queue queueingTime:vector ETV
attr interpolationmode none
attr title "queueing time, vector"
vector 126 AODVNetwork.host[13].wlan[0].mac rcvdPkFromHl:vector(packetBytes) ETV
attr interpolationmode none
attr source packetReceivedFromUpper
attr title "packets received from higher layer, vector(packetBytes)"
vector 127 AODVNetwork.host[13].wlan[0].mac sentDownPk:vector(packetBytes) ETV
attr interpolationmode none
attr source packetSentToLower
attr title "packets sent to lower layer, vector(packetBytes)"
vector 128 AODVNetwork.host[9].wlan[0].queue packetReceived:vector(packetBytes) ETV
attr interpolationmode none
attr title "received packets, vector(packetBytes)"
vector 129 AODVNetwork.host[9].wlan[0].queue queueingTime:vector ETV
attr interpolationmode none
attr title "queueing time, vector"
vector 130 AODVNetwork.host[9].wlan[0].mac rcvdPkFromHl:vector(packetBytes) ETV
attr interpolationmode none
attr source packetReceivedFromUpper
attr title "packets received from higher layer, vector(packetBytes)"
vector 131 AODVNetwork.host[9].wlan[0].mac sentDownPk:vector(packetBytes) ETV
attr interpolationmode none
attr source packetSentToLower
attr title "packets sent to lower layer, vector(packetBytes)"
vector 132 AODVNetwork.host[11].wlan[0].queue packetReceived:vector(packetBytes) ETV
attr interpolationmode none
attr title "received packets, vector(packetBytes)"
vector 133 AODVNetwork.host[11].wlan[0].queue queueingTime:vector ETV
attr interpolationmode none
attr title "queueing time, vector"
vector 134 AODVNetwork.host[11].wlan[0].mac rcvdPkFromHl:vector(packetBytes) ETV
attr interpolationmode none
attr source packetReceivedFromUpper
attr title "packets received from higher layer, vector(packetBytes)"
vector 135 AODVNetwork.host[11].wlan[0].mac sentDownPk:vector(packetBytes) ETV
attr interpolationmode none
attr source packetSentToLower
attr title "packets sent to lower layer, vector(packetBytes)"
vector 136 AODVNetwork.host[18].wlan[0].queue packetReceived:vector(packetBytes) ETV
attr interpolationmode none
attr title "received packets, vector(packetBytes)"
vector 137 AODVNetwork.host[18].wlan[0].queue queueingTime:vector ETV
attr interpolationmode none
attr title "queueing time, vector"
vector 138 AODVNetwork.host[18].wlan[0].mac rcvdPkFromHl:vector(packetBytes) ETV
attr interpolationmode none
attr source packetReceivedFromUpper
attr title "packets received from higher layer, vector(packetBytes)"
vector 139 AODVNetwork.host[18].wlan[0].mac sentDownPk:vector(packetBytes) ETV
attr interpolationmode none
attr source packetSentToLower
attr title "packets sent to lower layer, vector(packetBytes)"
vector 140 AODVNetwork.host[10].wlan[0].queue packetReceived:vector(packetBytes) ETV
attr interpolationmode none
attr title "received packets, vector(packetBytes)"
vector 141 AODVNetwork.host[10].wlan[0].queue queueingTime:vector ETV
attr interpolationmode none
attr title "queueing time, vector"
vector 142 AODVNetwork.host[10].wlan[0].mac rcvdPkFromHl:vector(packetBytes) ETV
attr interpolationmode none
attr source packetReceivedFromUpper
attr title "packets received from higher layer, vector(packetBytes)"
vector 143 AODVNetwork.host[10].wlan[0].mac sentDownPk:vector(packetBytes) ETV
attr interpolationmode none
attr source packetSentToLower
attr title "packets sent to lower layer, vector(packetBytes)"
vector 144 AODVNetwork.host[14].wlan[0].queue packetReceived:vector(packetBytes) ETV
attr interpolationmode none
attr title "received packets, vector(packetBytes)"
vector 145 AODVNetwork.host[14].wlan[0].queue queueingTime:vector ETV
attr interpolationmode none
attr title "queueing time, vector"
vector 146 AODVNetwork.host[14].wlan[0].mac rcvdPkFromHl:vector(packetBytes) ETV
attr interpolationmode none
attr source packetReceivedFromUpper
attr title "packets received from higher layer, vector(packetBytes)"
vector 147 AODVNetwork.host[14].wlan[0].mac sentDownPk:vector(packetBytes) ETV
attr interpolationmode none
attr source packetSentToLower
attr title "packets sent to lower layer, vector(packetBytes)"
vector 148 AODVNetwork.host[6].wlan[0].queue packetReceived:vector(packetBytes) ETV
attr interpolationmode none
attr title "received packets, vector(packetBytes)"
vector 149 AODVNetwork.host[6].wlan[0].queue queueingTime:vector ETV
attr interpolationmode none
attr title "queueing time, vector"
vector 150 AODVNetwork.host[6].wlan[0].mac rcvdPkFromHl:vector(packetBytes) ETV
attr interpolationmode none
attr source packetReceivedFromUpper
attr title "packets received from higher layer, vector(packetBytes)"
vector 151 AODVNetwork.host[6].wlan[0].mac sentDownPk:vector(packetBytes) ETV
attr interpolationmode none
attr source packetSentToLower
attr title "packets sent to lower layer, vector(packetBytes)"
vector 152 AODVNetwork.host[4].wlan[0].queue packetReceived:vector(packetBytes) ETV
attr interpolationmode none
attr title "received packets, vector(packetBytes)"
vector 153 AODVNetwork.host[4].wlan[0].queue queueingTime:vector ETV
attr interpolationmode none
attr title "queueing time, vector"
vector 154 AODVNetwork.host[4].wlan[0].mac rcvdPkFromHl:vector(packetBytes) ETV
attr interpolationmode none
attr source packetReceivedFromUpper
attr title "packets received from higher layer, vector(packetBytes)"
vector 155 AODVNetwork.host[4].wlan[0].mac sentDownPk:vector(packetBytes) ETV
attr interpolationmode none
attr source packetSentToLower
attr title "packets sent to lower layer, vector(packetBytes)"
vector 156 AODVNetwork.host[3].wlan[0].queue packetReceived:vector(packetBytes) ETV
attr interpolationmode none
attr title "received packets, vector(packetBytes)"
vector 157 AODVNetwork.host[3].wlan[0].queue queueingTime:vector ETV
attr interpolationmode none
attr title "queueing time, vector"
vector 158 AODVNetwork.host[3].wlan[0].mac rcvdPkFromHl:vector(packetBytes) ETV
attr interpolationmode none
attr source packetReceivedFromUpper
attr title "packets received from higher layer, vector(packetBytes)"
vector 159 AODVNetwork.host[3].wlan[0].mac sentDownPk:vector(packetBytes) ETV
attr interpolationmode none
attr source packetSentToLower
attr title "packets sent to lower layer, vector(packetBytes)"
vector 160 AODVNetwork.host[5].wlan[0].queue packetReceived:vector(packetBytes) ETV
attr interpolationmode none
attr title "received packets, vector(packetBytes)"
vector 161 AODVNetwork.host[5].wlan[0].queue queueingTime:vector ETV
attr interpolationmode none
attr title "queueing time, vector"
vector 162 AODVNetwork.host[5].wlan[0].mac rcvdPkFromHl:vector(packetBytes) ETV
attr interpolationmode none
attr source packetReceivedFromUpper
attr title "packets received from higher layer, vector(packetBytes)"
vector 163 AODVNetwork.host[5].wlan[0].mac sentDownPk:vector(packetBytes) ETV
attr interpolationmode none
attr source packetSentToLower
attr title "packets sent to lower layer, vector(packetBytes)"
vector 164 AODVNetwork.host[12].wlan[0].queue packetReceived:vector(packetBytes) ETV
attr interpolationmode none
attr title "received packets, vector(packetBytes)"
vector 165 AODVNetwork.host[12].wlan[0].queue queueingTime:vector ETV
attr interpolationmode none
attr title "queueing time, vector"
vector 166 AODVNetwork.host[12].wlan[0].mac rcvdPkFromHl:vector(packetBytes) ETV
attr interpolationmode none
attr source packetReceivedFromUpper
attr title "packets received from higher layer, vector(packetBytes)"
vector 167 AODVNetwork.host[12].wlan[0].mac sentDownPk:vector(packetBytes) ETV
attr interpolationmode none
attr source packetSentToLower
attr title "packets sent to lower layer, vector(packetBytes)"
vector 168 AODVNetwork.host[17].wlan[0].queue packetReceived:vector(packetBytes) ETV
attr interpolationmode none
attr title "received packets, vector(packetBytes)"
vector 169 AODVNetwork.host[17].wlan[0].queue queueingTime:vector ETV
attr interpolationmode none
attr title "queueing time, vector"
vector 170 AODVNetwork.host[17].wlan[0].mac rcvdPkFromHl:vector(packetBytes) ETV
attr interpolationmode none
attr source packetReceivedFromUpper
attr title "packets received from higher layer, vector(packetBytes)"
vector 171 AODVNetwork.host[17].wlan[0].mac sentDownPk:vector(packetBytes) ETV
attr interpolationmode none
attr source packetSentToLower
attr title "packets sent to lower layer, vector(packetBytes)"
vector 172 AODVNetwork.host[1].wlan[0].queue packetReceived:vector(packetBytes) ETV
attr interpolationmode none
attr title "received packets, vector(packetBytes)"
vector 173 AODVNetwork.host[1].wlan[0].queue queueingTime:vector ETV
attr interpolationmode none
attr title "queueing time, vector"
vector 174 AODVNetwork.host[1].wlan[0].mac rcvdPkFromHl:vector(packetBytes) ETV
attr interpolationmode none
attr source packetReceivedFromUpper
attr title "packets received from higher layer, vector(packetBytes)"
vector 175 AODVNetwork.host[1].wlan[0].mac sentDownPk:vector(packetBytes) ETV
attr interpolationmode none
attr source packetSentToLower
attr title "packets sent to lower layer, vector(packetBytes)"
vector 176 AODVNetwork.host[2].wlan[0].queue packetReceived:vector(packetBytes) ETV
attr interpolationmode none
attr title "received packets, vector(packetBytes)"
vector 177 AODVNetwork.host[2].wlan[0].queue queueingTime:vector ETV
attr interpolationmode none
attr title "queueing time, vector"
vector 178 AODVNetwork.host[2].wlan[0].mac rcvdPkFromHl:vector(packetBytes) ETV
attr interpolationmode none
attr source packetReceivedFromUpper
attr title "packets received from higher layer, vector(packetBytes)"
vector 179 AODVNetwork.host[2].wlan[0].mac sentDownPk:vector(packetBytes) ETV
attr interpolationmode none
attr source packetSentToLower
attr title "packets sent to lower layer, vector(packetBytes)"
vector 180 AODVNetwork.host[15].wlan[0].queue packetReceived:vector(packetBytes) ETV
attr interpolationmode none
attr title "received packets, vector(packetBytes)"
vector 181 AODVNetwork.host[15].wlan[0].queue queueingTime:vector ETV
attr interpolationmode none
attr title "queueing time, vector"
vector 182 AODVNetwork.host[15].wlan[0].mac rcvdPkFromHl:vector(packetBytes) ETV
attr interpolationmode none
attr source packetReceivedFromUpper
attr title "packets received from higher layer, vector(packetBytes)"
vector 183 AODVNetwork.host[15].wlan[0].mac sentDownPk:vector(packetBytes) ETV
attr interpolationmode none
attr source packetSentToLower
attr title "packets sent to lower layer, vector(packetBytes)"
vector 184 AODVNetwork.host[8].wlan[0].queue packetReceived:vector(packetBytes) ETV
attr interpolationmode none
attr title "received packets, vector(packetBytes)"
vector 185 AODVNetwork.host[8].wlan[0].queue queueingTime:vector ETV
attr interpolationmode none
attr title "queueing time, vector"
vector 186 AODVNetwork.host[8].wlan[0].mac rcvdPkFromHl:vector(packetBytes) ETV
attr interpolationmode none
attr source packetReceivedFromUpper
attr title "packets received from higher layer, vector(packetBytes)"
vector 187 AODVNetwork.host[8].wlan[0].mac sentDownPk:vector(packetBytes) ETV
attr interpolationmode none
attr source packetSentToLower
attr title "packets sent to lower layer, vector(packetBytes)"
vector 188 AODVNetwork.host[19].wlan[0].queue packetReceived:vector(packetBytes) ETV
attr interpolationmode none
attr title "received packets, vector(packetBytes)"
vector 189 AODVNetwork.host[19].wlan[0].queue queueingTime:vector ETV
attr interpolationmode none
attr title "queueing time, vector"
vector 190 AODVNetwork.host[19].wlan[0].mac rcvdPkFromHl:vector(packetBytes) ETV
attr interpolationmode none
attr source packetReceivedFromUpper
attr title "packets received from higher layer, vector(packetBytes)"
vector 191 AODVNetwork.host[19].wlan[0].mac sentDownPk:vector(packetBytes) ETV
attr interpolationmode none
attr source packetSentToLower
attr title "packets sent to lower layer, vector(packetBytes)"
vector 192 AODVNetwork.host[7].wlan[0].queue packetReceived:vector(packetBytes) ETV
attr interpolationmode none
attr title "received packets, vector(packetBytes)"
vector 193 AODVNetwork.host[7].wlan[0].queue queueingTime:vector ETV
attr interpolationmode none
attr title "queueing time, vector"
vector 194 AODVNetwork.host[7].wlan[0].mac rcvdPkFromHl:vector(packetBytes) ETV
attr interpolationmode none
attr source packetReceivedFromUpper
attr title "packets received from higher layer, vector(packetBytes)"
vector 195 AODVNetwork.host[7].wlan[0].mac sentDownPk:vector(packetBytes) ETV
attr interpolationmode none
attr source packetSentToLower
attr title "packets sent to lower layer, vector(packetBytes)"
vector 196 AODVNetwork.host[16].wlan[0].queue packetReceived:vector(packetBytes) ETV
attr interpolationmode none
attr title "received packets, vector(packetBytes)"
vector 197 AODVNetwork.host[16].wlan[0].queue queueingTime:vector ETV
attr interpolationmode none
attr title "queueing time, vector"
vector 198 AODVNetwork.host[16].wlan[0].mac rcvdPkFromHl:vector(packetBytes) ETV
attr interpolationmode none
attr source packetReceivedFromUpper
attr title "packets received from higher layer, vector(packetBytes)"
vector 199 AODVNetwork.host[16].wlan[0].mac sentDownPk:vector(packetBytes) ETV
attr interpolationmode none
attr source packetSentToLower
attr title "packets sent to lower layer, vector(packetBytes)"
0	0	0	0
1	0	0	0
1	0	0	0
1	0	0	4
2	0	0	0
3	0	0	0
3	0	0	0
3	0	0	4
4	0	0	0
5	0	0	0
5	0	0	0
5	0	0	4
6	0	0	0
7	0	0	0
7	0	0	0
7	0	0	4
8	0	0	0
9	0	0	0
9	0	0	0
9	0	0	4
10	0	0	0
11	0	0	0
11	0	0	0
11	0	0	4
12	0	0	0
13	0	0	0
13	0	0	0
13	0	0	4
14	0	0	0
15	0	0	0
15	0	0	0
15	0	0	4
16	0	0	0
17	0	0	0
17	0	0	0
17	0	0	4
18	0	0	0
19	0	0	0
19	0	0	0
19	0	0	4
20	0	0	0
21	0	0	0
21	0	0	0
21	0	0	4
22	0	0	0
23	0	0	0
23	0	0	0
23	0	0	4
24	0	0	0
25	0	0	0
25	0	0	0
25	0	0	4
26	0	0	0
27	0	0	0
27	0	0	0
27	0	0	4
28	0	0	0
29	0	0	0
29	0	0	0
29	0	0	4
30	0	0	0
31	0	0	0
31	0	0	0
31	0	0	4
32	0	0	0
33	0	0	0
33	0	0	0
33	0	0	4
34	0	0	0
35	0	0	0
35	0	0	0
35	0	0	4
36	0	0	0
37	0	0	0
37	0	0	0
37	0	0	4
38	0	0	0
39	0	0	0
39	0	0	0
39	0	0	4
40	0	0	1
41	0	0	1
42	0	0	1
43	0	0	1
43	153	0.503958625167	2
43	154	0.503992225167	1
43	306	0.824350436255	2
43	307	0.824384036255	1
43	519	1.303409101489	2
43	520	1.303442701489	1
43	701	1.942373487526	2
43	702	1.942407087526	1
43	1341	4.903300867692	2
43	1342	4.903334467692	1
43	1891	7.860426477835	2
43	1892	7.860460077835	1
43	2631	11.003996012923	2
43	2632	11.004029612923	1
43	2793	11.324925161402	2
43	2795	11.324958761402	1
43	2931	11.800662438165	2
43	2932	11.800696038165	1
43	3174	12.442622963079	2
43	3175	12.442656563079	1
43	3829	15.404794913607	2
43	3830	15.404828513607	1
43	4419	18.363977673735	2
43	4420	18.364011273735	1
43	5113	21.504813851571	2
43	5114	21.504847451571	1
43	5181	21.82191551444	2
43	5182	21.82194911444	1
43	5419	22.301945673396	2
43	5420	22.301979273396	1
43	5661	22.943576039159	2
43	5662	22.943609639159	1
43	6206	25.900586577833	2
43	6211	25.900620177833	1
43	6841	28.861270126143	2
43	6842	28.861303726143	1
43	7576	32.003108327196	2
43	7577	32.003141927196	1
43	7659	32.32072345573	2
43	7660	32.32075705573	1
43	7861	32.802090546046	2
43	7866	32.802124146046	1
43	8119	33.44310736515	2
43	8120	33.44314096515	1
43	8689	36.401084351268	2
43	8690	36.401117951268	1
43	9339	39.362939835616	2
43	9344	39.362973435616	1
43	10013	42.503197313863	2
43	10014	42.503230913863	1
43	10181	42.824624199084	2
43	10182	42.824657799084	1
43	10324	43.300330371317	2
43	10325	43.300363971317	1
43	10601	43.944118765813	2
43	10602	43.944152365813	1
43	11196	46.903341091138	2
43	11197	46.903374691138	1
43	11831	49.864652141917	2
43	11832	49.864685741917	1
43	12521	53.003905964212	2
43	12522	53.003939564212	1
43	12624	53.323004668434	2
43	12625	53.323038268434	1
43	12796	53.800737000502	2
43	12797	53.800770600502	1
43	13079	54.444508252176	2
43	13080	54.444541852176	1
43	13689	57.404087266315	2
43	13690	57.404120866315	1
43	14264	60.363471969444	2
43	14265	60.363505569444	1
43	14943	63.501915331796	2
43	14948	63.501948931796	1
43	15110	63.824235086733	2
43	15112	63.824268686733	1
43	15279	64.30207562627	2
43	15280	64.30210922627	1
43	15476	64.941856473869	2
43	15477	64.941890073869	1
43	16086	67.900548415299	2
43	16087	67.900582015299	1
43	16696	70.861273243068	2
43	16697	70.861306843068	1
43	17406	74.00112500797	2
43	17407	74.00115860797	1
43	17519	74.320515965634	2
43	17520	74.320549565634	1
43	17791	74.804439171528	2
43	17792	74.804472771528	1
43	17984	75.442764921667	2
43	17985	75.442798521667	1
43	18588	78.402400539051	2
43	18590	78.402434139051	1
43	19189	81.361116791073	2
43	19190	81.361150391073	1
43	19888	84.502862251067	2
43	19889	84.502895851067	1
43	20051	84.824567163034	2
43	20052	84.824600763034	1
43	20239	85.303060904342	2
43	20240	85.303094504342	1
43	20476	85.944102112259	2
43	20477	85.944135712259	1
43	21006	88.900665379984	2
43	21007	88.900698979984	1
43	21636	91.861179067071	2
43	21637	91.861212667071	1
43	22315	95.000151442046	2
43	22317	95.000185042046	1
43	22534	95.324893413081	2
43	22535	95.324927013081	1
43	22701	95.803415959219	2
43	22702	95.803449559219	1
43	22899	96.441652294566	2
43	22900	96.441685894566	1
43	23514	99.403020134659	2
43	23515	99.403053734659	1
43	24099	102.361132781028	2
43	24100	102.361166381028	1
43	24833	105.503367292407	2
43	24834	105.503400892407	1
43	24926	105.821135927894	2
43	24927	105.821169527894	1
43	25184	106.302952107353	2
43	25189	106.302985707353	1
43	25339	106.940605807282	2
43	25342	106.940639407282	1
43	26011	109.904289892911	2
43	26012	109.904323492911	1
43	26570	112.860994050275	2
43	26572	112.861027650275	1
43	27271	116.001467561255	2
43	27272	116.001501161255	1
43	27413	116.321446709612	2
43	27414	116.321480309612	1
43	27630	116.802357398603	2
43	27631	116.802390998603	1
43	27808	117.440765658644	2
43	27809	117.440799258644	1
43	28478	120.403051065283	2
43	28479	120.403084665283	1
43	29108	123.364816872099	2
43	29113	123.364850472099	1
43	29747	126.502083121082	2
43	29752	126.502116721082	1
43	29895	126.822952639001	2
43	29896	126.822986239001	1
43	30123	127.30414285341	2
43	30124	127.30417645341	1
43	30295	127.941325300138	2
43	30296	127.941358900138	1
43	30914	130.901836752028	2
43	30916	130.901870352028	1
43	31525	133.862360758509	2
43	31526	133.862394358509	1
43	32190	137.000662654862	2
43	32191	137.000696254862	1
43	32388	137.323842502102	2
43	32389	137.323876102102	1
43	32605	137.80496088751	2
43	32606	137.80499448751	1
43	32798	138.442454398244	2
43	32799	138.442487998244	1
43	33368	141.402225008426	2
43	33369	141.402258608426	1
43	33978	144.361812064789	2
43	33979	144.361845664789	1
43	34722	147.504651476666	2
43	34723	147.504685076666	1
43	34795	147.821958335012	2
43	34796	147.821991935012	1
43	35022	148.301379568607	2
43	35024	148.301413168607	1
43	35210	148.94045404712	2
43	35215	148.94048764712	1
43	35874	151.903813931738	2
43	35876	151.903847531738	1
43	36450	154.861658515715	2
43	36451	154.861692115715	1
43	37190	158.004207036196	2
43	37191	158.004240636196	1
43	37328	158.324512883646	2
43	37329	158.324546483646	1
43	37455	158.800753195251	2
43	37456	158.800786795251	1
43	37693	159.441574190037	2
43	37694	159.441607790037	1
43	38373	162.404546768465	2
43	38374	162.404580368465	1
43	38928	165.361725286131	2
43	38929	165.361758886131	1
43	39632	168.502413349465	2
43	39633	168.502446949465	1
43	39775	168.824245242827	2
43	39776	168.824278842827	1
43	40002	169.3042134145	2
43	40008	169.3042470145	1
43	40190	169.943309176539	2
43	40191	169.943342776539	1
43	40775	172.901286963889	2
43	40776	172.901320563889	1
43	41350	175.86037932042	2
43	41351	175.86041292042	1
43	42100	179.002826226777	2
43	42101	179.002859826777	1
43	42242	179.32273569951	2
43	42244	179.32276929951	1
43	42470	179.804621371682	2
43	42471	179.804654971682	1
43	42653	180.442738469008	2
43	42654	180.442772069008	1
43	43233	183.40081963426	2
43	43234	183.40085323426	1
43	43913	186.364526781181	2
43	43914	186.364560381181	1
43	44517	189.500345855359	2
43	44518	189.500379455359	1
43	44655	189.821446611637	2
43	44656	189.821480211637	1
43	44908	190.302668405381	2
43	44909	190.302702005381	1
43	45120	190.943217605485	2
43	45121	190.943251205485	1
43	45704	193.901114464228	2
43	45706	193.901148064228	1
43	46320	196.861770329787	2
43	46321	196.861803929787	1
43	47020	200.002740262009	2
43	47021	200.002773862009	1
43	47163	200.323120943416	2
43	47164	200.323154543416	1
43	47393	200.803829426527	2
43	47396	200.803863026527	1
43	47633	201.444907465645	2
43	47634	201.444941065645	1
43	48183	204.40116055932	2
43	48184	204.40119415932	1
43	48763	207.360379272257	2
43	48764	207.360412872257	1
43	49527	210.504626503399	2
43	49528	210.504660103399	1
43	49640	210.82295000823	2
43	49641	210.82298360823	1
43	49813	211.300890087902	2
43	49814	211.300923687902	1
43	50005	211.940777211987	2
43	50006	211.940810811987	1
43	50620	214.900466932185	2
43	50621	214.900500532185	1
43	51275	217.863369609647	2
43	51276	217.863403209647	1
43	51990	221.004029953028	2
43	51991	221.004063553028	1
43	52063	221.320849684509	2
43	52064	221.320883284509	1
43	52300	221.802315838522	2
43	52301	221.802349438522	1
43	52543	222.444315861702	2
43	52544	222.444349461702	1
43	53102	225.400361605794	2
43	53104	225.400395205794	1
44	0	0	1
45	0	0	1
45	158	0.504060843632	2
45	159	0.504094443632	1
45	316	0.824893091714	2
45	317	0.824926691714	1
45	494	1.302249749948	2
45	495	1.302283349948	1
45	681	1.94122212794	2
45	682	1.94125572794	1
45	1281	4.901439955019	2
45	1286	4.901473555019	1
45	1880	7.860290145812	2
45	1882	7.860323745812	1
45	2596	11.002430797792	2
45	2597	11.002464397792	1
45	2759	11.322391851533	2
45	2760	11.322425451533	1
45	2956	11.801626551546	2
45	2957	11.801660151546	1
45	3184	12.443416406669	2
45	3185	12.443450006669	1
45	3754	15.400598856742	2
45	3755	15.400632456742	1
45	4349	18.360859265497	2
45	4350	18.360892865497	1
45	5103	21.504573953318	2
45	5108	21.504607553318	1
45	5221	21.82346978205	2
45	5222	21.82350338205	1
45	5404	22.30123267396	2
45	5405	22.30126627396	1
45	5640	22.942644699641	2
45	5642	22.942678299641	1
45	6266	25.902418532304	2
45	6267	25.902452132304	1
45	6856	28.861824559174	2
45	6857	28.861858159174	1
45	7556	32.002284423229	2
45	7557	32.002318023229	1
45	7639	32.320002729854	2
45	7640	32.320036329854	1
45	7871	32.80228343797	2
45	7872	32.80231703797	1
45	8149	33.444685585235	2
45	8150	33.444719185235	1
45	8694	36.401190056371	2
45	8695	36.401223656371	1
45	9349	39.363385705721	2
45	9350	39.363419305721	1
45	10028	42.503652390275	2
45	10029	42.503685990275	1
45	10176	42.824566421723	2
45	10177	42.824600021723	1
45	10394	43.302867219697	2
45	10395	43.302900819697	1
45	10581	43.943016614977	2
45	10582	43.943050214977	1
45	11176	46.902887066015	2
45	11177	46.902920666015	1
45	11811	49.864307954813	2
45	11812	49.864341554813	1
45	12501	53.003232452963	2
45	12502	53.003266052963	1
45	12574	53.320376386397	2
45	12579	53.320409986397	1
45	12851	53.804331457905	2
45	12852	53.804365057905	1
45	13084	54.444828671394	2
45	13085	54.444862271394	1
45	13683	57.40394507662	2
45	13685	57.40397867662	1
45	14219	60.360369131389	2
45	14220	60.360402731389	1
45	14963	63.502269401118	2
45	14964	63.502303001118	1
45	15051	63.822532658421	2
45	15052	63.822566258421	1
45	15304	64.302694722009	2
45	15305	64.302728322009	1
45	15496	64.942281112506	2
45	15497	64.942314712506	1
45	16116	67.901984420895	2
45	16117	67.902018020895	1
45	16721	70.862734750313	2
45	16726	70.862768350313	1
45	17446	74.004169728007	2
45	17451	74.004203328007	1
45	17559	74.323329757062	2
45	17560	74.323363357062	1
45	17746	74.80214911714	2
45	17747	74.80218271714	1
45	18024	75.444916013671	2
45	18025	75.444949613671	1
45	18549	78.400350443809	2
45	18550	78.400384043809	1
45	19174	81.360719882662	2
45	19175	81.360753482662	1
45	19893	84.503370386466	2
45	19894	84.503403986466	1
45	20016	84.822951399588	2
45	20017	84.822984999588	1
45	20264	85.304542933437	2
45	20265	85.304576533437	1
45	20421	85.942529539914	2
45	20422	85.942563139914	1
45	21001	88.900269345501	2
45	21002	88.900302945501	1
45	21696	91.864952695986	2
45	21701	91.864986295986	1
45	22386	95.002979289726	2
45	22387	95.003012889726	1
45	22524	95.324470862567	2
45	22525	95.324504462567	1
45	22731	95.804645056626	2
45	22732	95.804678656626	1
45	22879	96.440131946664	2
45	22880	96.440165546664	1
45	23524	99.403231604047	2
45	23525	99.403265204047	1
45	24124	102.363163828204	2
45	24125	102.363197428204	1
45	24823	105.502815744327	2
45	24824	105.502849344327	1
45	24941	105.822171911247	2
45	24946	105.822205511247	1
45	25213	106.304704853495	2
45	25215	106.304738453495	1
45	25376	106.942324610865	2
45	25381	106.942358210865	1
45	25986	109.902730994849	2
45	25987	109.902764594849	1
45	26621	112.863953864244	2
45	26622	112.863987464244	1
45	27286	116.003076028576	2
45	27287	116.003109628576	1
45	27418	116.321687852688	2
45	27419	116.321721452688	1
45	27610	116.801879384712	2
45	27611	116.801912984712	1
45	27837	117.44273066374	2
45	27839	117.44276426374	1
45	28443	120.401429609647	2
45	28444	120.401463209647	1
45	29078	123.363759530155	2
45	29079	123.363793130155	1
45	29767	126.50282332427	2
45	29768	126.50285692427	1
45	29849	126.820861546653	2
45	29851	126.820895146653	1
45	30133	127.304524838215	2
45	30134	127.304558438215	1
45	30350	127.944935424547	2
45	30351	127.944969024547	1
45	30875	130.900420771562	2
45	30876	130.900454371562	1
45	31530	133.86248816579	2
45	31531	133.86252176579	1
45	32230	137.003441878564	2
45	32231	137.003475478564	1
45	32393	137.324132593162	2
45	32394	137.324166193162	1
45	32575	137.803608472504	2
45	32576	137.803642072504	1
45	32753	138.440790114945	2
45	32754	138.440823714945	1
45	33397	141.403328713321	2
45	33399	141.403362313321	1
45	34027	144.363896954797	2
45	34029	144.363930554797	1
45	34702	147.503879106003	2
45	34703	147.503912706003	1
45	34860	147.824978663356	2
45	34861	147.825012263356	1
45	35068	148.304324433883	2
45	35069	148.304358033883	1
45	35269	148.944177296951	2
45	35271	148.944210896951	1
45	35835	151.902368443647	2
45	35836	151.902402043647	1
45	36415	154.860140439966	2
45	36416	154.860174039966	1
45	37170	158.003196855822	2
45	37171	158.003230455822	1
45	37263	158.321344157814	2
45	37264	158.321377757814	1
45	37510	158.803438212421	2
45	37515	158.803471812421	1
45	37728	159.443248306289	2
45	37729	159.443281906289	1
45	38328	162.402165417313	2
45	38329	162.402199017313	1
45	38953	165.363679506383	2
45	38954	165.363713106383	1
45	39652	168.503809804105	2
45	39653	168.503843404105	1
45	39785	168.824356905099	2
45	39786	168.824390505099	1
45	39992	169.303414440526	2
45	39994	169.303448040526	1
45	40175	169.94251075085	2
45	40176	169.94254435085	1
45	40794	172.902542597842	2
45	40796	172.902576197842	1
45	41405	175.863338100347	2
45	41406	175.863371700347	1
45	42105	179.003420978746	2
45	42110	179.003454578746	1
45	42258	179.323965340473	2
45	42263	179.323998940473	1
45	42395	179.801203095225	2
45	42396	179.801236695225	1
45	42688	180.444191027861	2
45	42689	180.444224627861	1
45	43253	183.40192539878	2
45	43254	183.40195899878	1
45	43908	186.364228852795	2
45	43909	186.364262452795	1
45	44542	189.500898231692	2
45	44543	189.500931831692	1
45	44705	189.823320226884	2
45	44706	189.823353826884	1
45	44913	190.302820979318	2
45	44914	190.302854579318	1
45	45085	190.941207315279	2
45	45086	190.941240915279	1
45	45725	193.902544190487	2
45	45726	193.902577790487	1
45	46305	196.861160980226	2
45	46306	196.861194580226	1
45	47060	200.004178291744	2
45	47061	200.004211891744	1
45	47118	200.320010626977	2
45	47119	200.320044226977	1
45	47370	200.802526662948	2
45	47371	200.802560262948	1
45	47573	201.442258633559	2
45	47574	201.442292233559	1
45	48213	204.402810959932	2
45	48214	204.402844559932	1
45	48788	207.361235725824	2
45	48789	207.361269325824	1
45	49457	210.501023166085	2
45	49458	210.501056766085	1
45	49630	210.82246253044	2
45	49631	210.82249613044	1
45	49888	211.304319893251	2
45	49889	211.304353493251	1
45	50030	211.941933711671	2
45	50031	211.941967311671	1
45	50665	214.90278116714	2
45	50666	214.90281476714	1
45	51305	217.86482184599	2
45	51310	217.86485544599	1
45	51950	221.001968594957	2
45	51951	221.002002194957	1
45	52113	221.323897385983	2
45	52118	221.323930985983	1
45	52289	221.801821658666	2
45	52291	221.801855258666	1
45	52528	222.44371811198	2
45	52529	222.44375171198	1
45	53153	225.403411544336	2
45	53154	225.403445144336	1
46	0	0	1
47	0	0	1
47	133	0.502644474608	2
47	134	0.502678074608	1
47	246	0.8223680402	2
47	247	0.8224016402	1
47	483	1.30179753951	2
47	485	1.30183113951	1
47	710	1.94311755053	2
47	712	1.94315115053	1
47	1285	4.90145038805	2
47	1287	4.90148398805	1
47	1876	7.860282091673	2
47	1881	7.860315691673	1
47	2611	11.003152239678	2
47	2612	11.003185839678	1
47	2779	11.323767848023	2
47	2780	11.323801448023	1
47	2916	11.800267135887	2
47	2917	11.800300735887	1
47	3164	12.442210076597	2
47	3165	12.442243676597	1
47	3764	15.401776844248	2
47	3769	15.401810444248	1
47	4388	18.362519668047	2
47	4390	18.362553268047	1
47	5028	21.500084358378	2
47	5029	21.500117958378	1
47	5226	21.824033346645	2
47	5227	21.824066946645	1
47	5474	22.304760713495	2
47	5475	22.304794313495	1
47	5636	22.942615031967	2
47	5641	22.942648631967	1
47	6221	25.901356260384	2
47	6222	25.901389860384	1
47	6881	28.86275539574	2
47	6882	28.86278899574	1
47	7536	32.001442849792	2
47	7537	32.001476449792	1
47	7674	32.320840212593	2
47	7675	32.320873812593	1
47	7846	32.800864756745	2
47	7847	32.800898356745	1
47	8079	33.441196685018	2
47	8080	33.441230285018	1
47	8754	36.404515748224	2
47	8755	36.404549348224	1
47	9364	39.364489779683	2
47	9365	39.364523379683	1
47	10003	42.502603388967	2
47	10004	42.502636988967	1
47	10126	42.821258133778	2
47	10127	42.821291733778	1
47	10379	43.302362068944	2
47	10380	43.302395668944	1
47	10546	43.941377126318	2
47	10551	43.941410726318	1
47	11141	46.90143358341	2
47	11142	46.90146718341	1
47	11794	49.863217095579	2
47	11797	49.863250695579	1
47	12451	53.000844630565	2
47	12452	53.000878230565	1
47	12609	53.322345849248	2
47	12610	53.322379449248	1
47	12846	53.803781436129	2
47	12847	53.803815036129	1
47	13049	54.443211168501	2
47	13050	54.443244768501	1
47	13674	57.403845234995	2
47	13675	57.403878834995	1
47	14284	60.363891208639	2
47	14285	60.363924808639	1
47	14953	63.501965612072	2
47	14958	63.501999212072	1
47	15066	63.823008128298	2
47	15067	63.823041728298	1
47	15299	64.302599924935	2
47	15300	64.302633524935	1
47	15526	64.943378776036	2
47	15527	64.943412376036	1
47	16101	67.901608488112	2
47	16106	67.901642088112	1
47	16756	70.863151184104	2
47	16757	70.863184784104	1
47	17450	74.004186631875	2
47	17452	74.004220231875	1
47	17539	74.321549262538	2
47	17540	74.321582862538	1
47	17771	74.803506284211	2
47	17772	74.803539884211	1
47	18004	75.443483391296	2
47	18005	75.443516991296	1
47	18619	78.403219320206	2
47	18620	78.403252920206	1
47	19194	81.36145798339	2
47	19195	81.36149158339	1
47	19853	84.501123886642	2
47	19854	84.501157486642	1
47	20056	84.824892298229	2
47	20057	84.824925898229	1
47	20249	85.303618115473	2
47	20250	85.303651715473	1
47	20406	85.941026949771	2
47	20407	85.941060549771	1
47	21071	88.903867273362	2
47	21072	88.903900873362	1
47	21620	91.860515266259	2
47	21622	91.860548866259	1
47	22381	95.002034732	2
47	22382	95.002068332	1
47	22479	95.322213339757	2
47	22480	95.322246939757	1
47	22726	95.804106187985	2
47	22727	95.804139787985	1
47	22884	96.440730021711	2
47	22885	96.440763621711	1
47	23529	99.403310918255	2
47	23530	99.403344518255	1
47	24139	102.363528761817	2
47	24140	102.363562361817	1
47	24858	105.504764683968	2
47	24859	105.504798283968	1
47	24981	105.824212301042	2
47	24982	105.824245901042	1
47	25179	106.302729268152	2
47	25180	106.302762868152	1
47	25351	106.94089716482	2
47	25356	106.94093076482	1
47	25976	109.902266520298	2
47	25977	109.902300120298	1
47	26591	112.861443949708	2
47	26592	112.861477549708	1
47	27251	116.000408875892	2
47	27252	116.000442475892	1
47	27423	116.321992888199	2
47	27424	116.322026488199	1
47	27665	116.804087543982	2
47	27666	116.804121143982	1
47	27863	117.444018814644	2
47	27864	117.444052414644	1
47	28493	120.403920415241	2
47	28494	120.403954015241	1
47	29093	123.364111574225	2
47	29094	123.364145174225	1
47	29762	126.502713005114	2
47	29763	126.502746605114	1
47	29840	126.820370666491	2
47	29841	126.820404266491	1
47	30113	127.30373690889	2
47	30118	127.30377050889	1
47	30275	127.940445050774	2
47	30276	127.940478650774	1
47	30925	130.902811695255	2
47	30926	130.902845295255	1
47	31550	133.863610998684	2
47	31551	133.863644598684	1
47	32260	137.004257113376	2
47	32261	137.004290713376	1
47	32313	137.320015132464	2
47	32314	137.320048732464	1
47	32560	137.802945618099	2
47	32561	137.802979218099	1
47	32758	138.440958953606	2
47	32763	138.440992553606	1
47	33353	141.401287332384	2
47	33354	141.401320932384	1
47	33988	144.361958963546	2
47	33993	144.361992563546	1
47	34692	147.502975123114	2
47	34693	147.503008723114	1
47	34844	147.824786972656	2
47	34846	147.824820572656	1
47	35033	148.30267527281	2
47	35038	148.30270887281	1
47	35255	148.943814769314	2
47	35256	148.943848369314	1
47	35845	151.902704127592	2
47	35846	151.902737727592	1
47	36475	154.862321211559	2
47	36476	154.862354811559	1
47	37115	158.001048460716	2
47	37120	158.001082060716	1
47	37318	158.324139065326	2
47	37319	158.324172665326	1
47	37530	158.804372228596	2
47	37531	158.804405828596	1
47	37683	159.440755196217	2
47	37684	159.440788796217	1
47	38323	162.40173525254	2
47	38324	162.40176885254	1
47	38912	165.36107196981	2
47	38914	165.36110556981	1
47	39617	168.501865979783	2
47	39618	168.501899579783	1
47	39790	168.824703822763	2
47	39791	168.824737422763	1
47	39963	169.302342898815	2
47	39964	169.302376498815	1
47	40220	169.944996573537	2
47	40221	169.945030173537	1
47	40755	172.900223294105	2
47	40756	172.900256894105	1
47	41425	175.864064283385	2
47	41426	175.864097883385	1
47	42064	179.001258567822	2
47	42066	179.001292167822	1
47	42228	179.322105470124	2
47	42229	179.322139070124	1
47	42425	179.802312963885	2
47	42426	179.802346563885	1
47	42618	180.440703556426	2
47	42619	180.440737156426	1
47	43258	183.402416781459	2
47	43259	183.402450381459	1
47	43893	186.362740715112	2
47	43894	186.362774315112	1
47	44547	189.50128580153	2
47	44548	189.50131940153	1
47	44665	189.821768354552	2
47	44666	189.821801954552	1
47	44902	190.302468669811	2
47	44904	190.302502269811	1
47	45074	190.940399538508	2
47	45076	190.940433138508	1
47	45710	193.901249809169	2
47	45711	193.901283409169	1
47	46345	196.863923283733	2
47	46354	196.863956883733	1
47	47049	200.003975539723	2
47	47051	200.004009139723	1
47	47168	200.323316886652	2
47	47169	200.323350486652	1
47	47375	200.803287751921	2
47	47376	200.803321351921	1
47	47598	201.443635606678	2
47	47599	201.443669206678	1
47	48193	204.401335923267	2
47	48194	204.401369523267	1
47	48803	207.363327565168	2
47	48804	207.363361165168	1
47	49482	210.502351999622	2
47	49483	210.502385599622	1
47	49615	210.821715816222	2
47	49616	210.821749416222	1
47	49853	211.30259503777	2
47	49854	211.30262863777	1
47	50070	211.943355448412	2
47	50071	211.943389048412	1
47	50650	214.901496784053	2
47	50651	214.901530384053	1
47	51309	217.864840194457	2
47	51311	217.864873794457	1
47	52005	221.004881759101	2
47	52006	221.004915359101	1
47	52133	221.324341153398	2
47	52134	221.324374753398	1
47	52340	221.804795224949	2
47	52341	221.804828824949	1
47	52548	222.444548582676	2
47	52549	222.444582182676	1
47	53143	225.402824078794	2
47	53144	225.402857678794	1
48	0	0	1
49	0	0	1
49	128	0.502399885857	2
49	129	0.502433485857	1
49	296	0.823995792819	2
49	301	0.824029392819	1
49	499	1.303065317309	2
49	500	1.303098917309	1
49	671	1.940794847932	2
49	672	1.940828447932	1
49	1301	4.90191731113	2
49	1302	4.90195091113	1
49	1911	7.862172083145	2
49	1912	7.862205683145	1
49	2616	11.003542740744	2
49	2617	11.003576340744	1
49	2764	11.322486956838	2
49	2765	11.322520556838	1
49	2996	11.804764353356	2
49	2997	11.804797953356	1
49	3189	12.443478127231	2
49	3194	12.443511727231	1
49	3784	15.402219393399	2
49	3785	15.402252993399	1
49	4379	18.362246458241	2
49	4380	18.362280058241	1
49	5078	21.5033364242	2
49	5079	21.5033700242	1
49	5161	21.820454428649	2
49	5162	21.820488028649	1
49	5434	22.302813915621	2
49	5435	22.302847515621	1
49	5606	22.941522231828	2
49	5607	22.941555831828	1
49	6261	25.902291295046	2
49	6262	25.902324895046	1
49	6846	28.861304522501	2
49	6847	28.861338122501	1
49	7510	32.000425334014	2
49	7512	32.000458934014	1
49	7704	32.322127008655	2
49	7705	32.322160608655	1
49	7921	32.804123988543	2
49	7922	32.804157588543	1
49	8144	33.444616526518	2
49	8145	33.444650126518	1
49	8734	36.403222101427	2
49	8735	36.403255701427	1
49	9343	39.362964401339	2
49	9345	39.362998001339	1
49	9973	42.500964230497	2
49	9974	42.500997830497	1
49	10141	42.822622885338	2
49	10146	42.822656485338	1
49	10374	43.302292062186	2
49	10375	43.302325662186	1
49	10526	43.940640104362	2
49	10527	43.940673704362	1
49	11206	46.903886889326	2
49	11207	46.903920489326	1
49	11771	49.861795485445	2
49	11772	49.861829085445	1
49	12486	53.002356033846	2
49	12487	53.002389633846	1
49	12578	53.32039123048	2
49	12580	53.32042483048	1
49	12866	53.804637448975	2
49	12867	53.804671048975	1
49	13043	54.443100629395	2
49	13045	54.443134229395	1
49	13619	57.401514390924	2
49	13620	57.401547990924	1
49	14244	60.362454831904	2
49	14245	60.362488431904	1
49	14957	63.501985798264	2
49	14959	63.502019398264	1
49	15071	63.82314730612	2
49	15072	63.82318090612	1
49	15334	64.304728180324	2
49	15335	64.304761780324	1
49	15511	64.942980922208	2
49	15512	64.943014522208	1
49	16131	67.902265991152	2
49	16132	67.902299591152	1
49	16701	70.861468084098	2
49	16702	70.861501684098	1
49	17436	74.003960526462	2
49	17437	74.003994126462	1
49	17588	74.324083628432	2
49	17590	74.324117228432	1
49	17786	74.804043040648	2
49	17787	74.804076640648	1
49	17974	75.442243003296	2
49	17975	75.442276603296	1
49	18554	78.400749077505	2
49	18555	78.400782677505	1
49	19238	81.3640241148	2
49	19240	81.3640577148	1
49	19858	84.501613866688	2
49	19859	84.501647466688	1
49	19991	84.821557246998	2
49	19992	84.821590846998	1
49	20244	85.303292721354	2
49	20245	85.303326321354	1
49	20416	85.94233010873	2
49	20417	85.94236370873	1
49	21065	88.903613287068	2
49	21067	88.903646887068	1
49	21656	91.862857487206	2
49	21657	91.862891087206	1
49	22351	95.001311156582	2
49	22352	95.001344756582	1
49	22459	95.320905208346	2
49	22460	95.320938808346	1
49	22736	95.804737801572	2
49	22737	95.804771401572	1
49	22949	96.444760548971	2
49	22950	96.444794148971	1
49	23489	99.402017426	2
49	23490	99.402051026	1
49	24154	102.36396277581	2
49	24155	102.36399637581	1
49	24813	105.502467914056	2
49	24814	105.502501514056	1
49	24956	105.822876983049	2
49	24957	105.822910583049	1
49	25199	106.303716561459	2
49	25200	106.303750161459	1
49	25386	106.943045396557	2
49	25387	106.943078996557	1
49	25936	109.900016007	2
49	25941	109.900049607	1
49	26566	112.860970212762	2
49	26571	112.861003812762	1
49	27291	116.003129073161	2
49	27292	116.003162673161	1
49	27453	116.324378825871	2
49	27454	116.324412425871	1
49	27640	116.803039684021	2
49	27641	116.803073284021	1
49	27818	117.441618068524	2
49	27819	117.441651668524	1
49	28423	120.400257809908	2
49	28424	120.400291409908	1
49	29073	123.363353549794	2
49	29074	123.363387149794	1
49	29722	126.500655104964	2
49	29723	126.500688704964	1
49	29925	126.824641041969	2
49	29926	126.824674641969	1
49	30098	127.303346715608	2
49	30099	127.303380315608	1
49	30290	127.940925909994	2
49	30291	127.940959509994	1
49	30940	130.903860624959	2
49	30941	130.903894224959	1
49	31500	133.861393957091	2
49	31501	133.861427557091	1
49	32200	137.001099445818	2
49	32201	137.001133045818	1
49	32383	137.323232194467	2
49	32384	137.323265794467	1
49	32590	137.804267659296	2
49	32591	137.804301259296	1
49	32743	138.440434043106	2
49	32744	138.440467643106	1
49	33408	141.40362048138	2
49	33413	141.40365408138	1
49	34023	144.363894156258	2
49	34028	144.363927756258	1
49	34637	147.500174766849	2
49	34638	147.500208366849	1
49	34839	147.824762052244	2
49	34845	147.824795652244	1
49	34993	148.300056450417	2
49	34994	148.300090050417	1
49	35235	148.942327429806	2
49	35236	148.942361029806	1
49	35818	151.901119614003	2
49	35825	151.901153214003	1
49	36465	154.862130761377	2
49	36470	154.862164361377	1
49	37125	158.001219826923	2
49	37130	158.001253426923	1
49	37338	158.324892076864	2
49	37339	158.324925676864	1
49	37495	158.802352839485	2
49	37496	158.802386439485	1
49	37708	159.442374337494	2
49	37709	159.442407937494	1
49	38358	162.404359439635	2
49	38363	162.404393039635	1
49	38908	165.361066855082	2
49	38913	165.361100455082	1
49	39572	168.500040360126	2
49	39573	168.500073960126	1
49	39720	168.821816567717	2
49	39721	168.821850167717	1
49	39982	169.303153337699	2
49	39984	169.303186937699	1
49	40145	169.941339590955	2
49	40146	169.941373190955	1
49	40825	172.904703378939	2
49	40830	172.904736978939	1
49	41365	175.860976587642	2
49	41366	175.861010187642	1
49	42115	179.003606073853	2
49	42116	179.003639673853	1
49	42183	179.320081515986	2
49	42184	179.320115115986	1
49	42390	179.800718340112	2
49	42391	179.800751940112	1
49	42648	180.442257241735	2
49	42649	180.442290841735	1
49	43293	183.403954236283	2
49	43294	183.403987836283	1
49	43898	186.364035753146	2
49	43899	186.364069353146	1
49	44567	189.502276776768	2
49	44568	189.502310376768	1
49	44720	189.824222522145	2
49	44721	189.824256122145	1
49	44938	190.304067315012	2
49	44939	190.304100915012	1
49	45135	190.943664969576	2
49	45136	190.943698569576	1
49	45730	193.902666449454	2
49	45731	193.902700049454	1
49	46340	196.86381463667	2
49	46341	196.86384823667	1
49	47065	200.004569486358	2
49	47066	200.004603086358	1
49	47183	200.323738922302	2
49	47188	200.323772522302	1
49	47405	200.804215179486	2
49	47406	200.804248779486	1
49	47613	201.443993550283	2
49	47614	201.444027150283	1
49	48233	204.404513654817	2
49	48234	204.404547254817	1
49	48842	207.3648081649	2
49	48844	207.3648417649	1
49	49512	210.503756958836	2
49	49513	210.503790558836	1
49	49585	210.820523688942	2
49	49586	210.820557288942	1
49	49867	211.303414583034	2
49	49869	211.303448183034	1
49	50075	211.94371369235	2
49	50076	211.94374729235	1
49	50614	214.900032700367	2
49	50616	214.900066300367	1
49	51285	217.863958715048	2
49	51286	217.863992315048	1
49	51975	221.00332525725	2
49	51976	221.00335885725	1
49	52128	221.324288523282	2
49	52129	221.324322123282	1
49	52280	221.801494079351	2
49	52281	221.801527679351	1
49	52538	222.444044422789	2
49	52539	222.444078022789	1
49	53158	225.404353355159	2
49	53159	225.404386955159	1
50	0	0	1
51	0	0	1
51	138	0.502840222819	2
51	139	0.502873822819	1
51	300	0.824004553762	2
51	302	0.824038153762	1
51	489	1.302185159763	2
51	490	1.302218759763	1
51	691	1.941690038088	2
51	692	1.941723638088	1
51	1331	4.903090077135	2
51	1332	4.903123677135	1
51	1921	7.86243918853	2
51	1922	7.86247278853	1
51	2651	11.004371439849	2
51	2652	11.004405039849	1
51	2704	11.320020240528	2
51	2705	11.320053840528	1
51	2976	11.80362797184	2
51	2977	11.80366157184	1
51	3218	12.444263174618	2
51	3220	12.444296774618	1
51	3768	15.401783534449	2
51	3770	15.401817134449	1
51	4364	18.361481211934	2
51	4365	18.361514811934	1
51	5088	21.503482412143	2
51	5089	21.503516012143	1
51	5196	21.822305034143	2
51	5197	21.822338634143	1
51	5409	22.301500144578	2
51	5410	22.301533744578	1
51	5611	22.941602826609	2
51	5612	22.941636426609	1
51	6248	25.902018963719	2
51	6252	25.902052563719	1
51	6821	28.86065951624	2
51	6822	28.86069311624	1
51	7596	32.004371999596	2
51	7597	32.004405599596	1
51	7648	32.32032217726	2
51	7650	32.32035577726	1
51	7841	32.800536053723	2
51	7842	32.800569653723	1
51	8124	33.443154355326	2
51	8125	33.443187955326	1
51	8674	36.400214620967	2
51	8675	36.400248220967	1
51	9369	39.364601358805	2
51	9370	39.364634958805	1
51	9987	42.501989593088	2
51	9989	42.502023193088	1
51	10121	42.820789419359	2
51	10122	42.820823019359	1
51	10364	43.302191279737	2
51	10369	43.302224879737	1
51	10561	43.941842454819	2
51	10562	43.941876054819	1
51	11131	46.900097312347	2
51	11132	46.900130912347	1
51	11756	49.86123288526	2
51	11757	49.86126648526	1
51	12471	53.001870313125	2
51	12476	53.001903913125	1
51	12644	53.32362658116	2
51	12645	53.32366018116	1
51	12791	53.800418956797	2
51	12792	53.800452556797	1
51	13059	54.443819343621	2
51	13064	54.443852943621	1
51	13663	57.403389474829	2
51	13665	57.403423074829	1
51	14289	60.363958072693	2
51	14290	60.363991672693	1
51	14968	63.502948559083	2
51	14969	63.502982159083	1
51	15090	63.82376630328	2
51	15092	63.82379990328	1
51	15288	64.302259035094	2
51	15290	64.302292635094	1
51	15546	64.944578235046	2
51	15547	64.944611835046	1
51	16125	67.902132969558	2
51	16127	67.902166569558	1
51	16711	70.862282995635	2
51	16712	70.862316595635	1
51	17421	74.001634711241	2
51	17422	74.001668311241	1
51	17524	74.320561955434	2
51	17529	74.320595555434	1
51	17711	74.800341681881	2
51	17712	74.800375281881	1
51	17994	75.443176569522	2
51	17995	75.443210169522	1
51	18594	78.402508865634	2
51	18595	78.402542465634	1
51	19234	81.364015720387	2
51	19239	81.364049320387	1
51	19903	84.504238696687	2
51	19904	84.504272296687	1
51	19981	84.821283237551	2
51	19982	84.821316837551	1
51	20204	85.301444533864	2
51	20209	85.301478133864	1
51	20451	85.943274651887	2
51	20452	85.943308251887	1
51	21041	88.90203136248	2
51	21042	88.90206496248	1
51	21681	91.86410996214	2
51	21682	91.86414356214	1
51	22321	95.000222548153	2
51	22322	95.000256148153	1
51	22514	95.324124304362	2
51	22519	95.324157904362	1
51	22651	95.80074970696	2
51	22656	95.80078330696	1
51	22869	96.440039566259	2
51	22870	96.440073166259	1
51	23508	99.402904979079	2
51	23510	99.402938579079	1
51	24169	102.36436876153	2
51	24170	102.36440236153	1
51	24793	105.501441743169	2
51	24798	105.501475343169	1
51	24986	105.824580116855	2
51	24987	105.824613716855	1
51	25209	106.304695478562	2
51	25214	106.304729078562	1
51	25411	106.944850539365	2
51	25412	106.944884139365	1
51	25971	109.902171649507	2
51	25972	109.902205249507	1
51	26556	112.860434428373	2
51	26557	112.860468028373	1
51	27296	116.00332245614	2
51	27301	116.00335605614	1
51	27468	116.324854236323	2
51	27469	116.324887836323	1
51	27624	116.802262574771	2
51	27626	116.802296174771	1
51	27878	117.44422506426	2
51	27883	117.44425866426	1
51	28452	120.402056686946	2
51	28454	120.402090286946	1
51	29083	123.363809173231	2
51	29084	123.363842773231	1
51	29757	126.502609568392	2
51	29758	126.502643168392	1
51	29920	126.823987084845	2
51	29921	126.824020684845	1
51	30068	127.300778503864	2
51	30069	127.300812103864	1
51	30305	127.942406334998	2
51	30306	127.942439934998	1
51	30900	130.901328867201	2
51	30901	130.901362467201	1
51	31540	133.862670873773	2
51	31541	133.862704473773	1
51	32250	137.003908615444	2
51	32251	137.003942215444	1
51	32348	137.3221419756	2
51	32349	137.3221755756	1
51	32595	137.804617209681	2
51	32596	137.804650809681	1
51	32772	138.441148124293	2
51	32774	138.441181724293	1
51	33433	141.404792972211	2
51	33434	141.404826572211	1
51	33968	144.360396742374	2
51	33969	144.360430342374	1
51	34712	147.504453155247	2
51	34713	147.504486755247	1
51	34800	147.822389129907	2
51	34801	147.822422729907	1
51	35008	148.301000546719	2
51	35009	148.301034146719	1
51	35280	148.944825714972	2
51	35281	148.944859314972	1
51	35870	151.903791279207	2
51	35875	151.903824879207	1
51	36425	154.860680180001	2
51	36426	154.860713780001	1
51	37200	158.004370144113	2
51	37201	158.004403744113	1
51	37253	158.321022585502	2
51	37254	158.321056185502	1
51	37465	158.801210304193	2
51	37466	158.801243904193	1
51	37763	159.444824283343	2
51	37764	159.444857883343	1
51	38343	162.403163237699	2
51	38344	162.403196837699	1
51	38948	165.363555021281	2
51	38949	165.363588621281	1
51	39592	168.500721241629	2
51	39593	168.500754841629	1
51	39750	168.823365114979	2
51	39751	168.823398714979	1
51	40018	169.304978538408	2
51	40019	169.305012138408	1
51	40155	169.942007330853	2
51	40160	169.942040930853	1
51	40790	172.902517343027	2
51	40795	172.902550943027	1
51	41355	175.860457552656	2
51	41356	175.860491152656	1
51	42090	179.002597344312	2
51	42095	179.002630944312	1
51	42223	179.321957493108	2
51	42224	179.321991093108	1
51	42465	179.804088113586	2
51	42466	179.804121713586	1
51	42683	180.443746714233	2
51	42684	180.443780314233	1
51	43263	183.402466992576	2
51	43264	183.402500592576	1
51	43873	186.361516336836	2
51	43878	186.361549936836	1
51	44572	189.502418858862	2
51	44573	189.502452458862	1
51	44725	189.824615805185	2
51	44726	189.824649405185	1
51	44918	190.302956159736	2
51	44919	190.302989759736	1
51	45155	190.944899769656	2
51	45156	190.944933369656	1
51	45700	193.901101910631	2
51	45705	193.901135510631	1
51	46375	196.86469178179	2
51	46376	196.86472538179	1
51	47070	200.004984412271	2
51	47075	200.005018012271	1
51	47203	200.324369006561	2
51	47204	200.324402606561	1
51	47400	200.804103416777	2
51	47401	200.804137016777	1
51	47563	201.442058190585	2
51	47564	201.442091790585	1
51	48168	204.400919019773	2
51	48169	204.400952619773	1
51	48777	207.360824976816	2
51	48779	207.360858576816	1
51	49442	210.500253988204	2
51	49443	210.500287588204	1
51	49650	210.823692519867	2
51	49651	210.823726119867	1
51	49828	211.301536315666	2
51	49833	211.301569915666	1
51	50055	211.942791468183	2
51	50056	211.942825068183	1
51	50660	214.902345213221	2
51	50661	214.902378813221	1
51	51220	217.860396748709	2
51	51221	217.860430348709	1
51	51930	221.000637435525	2
51	51931	221.000671035525	1
51	52058	221.320603526683	2
51	52059	221.320637126683	1
51	52335	221.804704093379	2
51	52336	221.804737693379	1
51	52557	222.444674098766	2
51	52559	222.444707698766	1
51	53108	225.400575140322	2
51	53109	225.400608740322	1
52	0	0	1
53	0	0	1
53	123	0.501963923966	2
53	124	0.501997523966	1
53	241	0.822307396814	2
53	242	0.822340996814	1
53	534	1.304511742891	2
53	535	1.304545342891	1
53	661	1.940551875696	2
53	662	1.940585475696	1
53	1346	4.90374584918	2
53	1347	4.90377944918	1
53	1901	7.861558979384	2
53	1902	7.861592579384	1
53	2601	11.002490701142	2
53	2602	11.002524301142	1
53	2774	11.323197362582	2
53	2775	11.323230962582	1
53	2910	11.800069741991	2
53	2912	11.800103341991	1
53	3149	12.441417594242	2
53	3150	12.441451194242	1
53	3774	15.401958871614	2
53	3775	15.401992471614	1
53	4369	18.361522342023	2
53	4370	18.361555942023	1
53	5048	21.502203330466	2
53	5053	21.502236930466	1
53	5171	21.821138797499	2
53	5172	21.821172397499	1
53	5464	22.304531771166	2
53	5469	22.304565371166	1
53	5676	22.944989811261	2
53	5677	22.945023411261	1
53	6216	25.901176314228	2
53	6217	25.901209914228	1
53	6866	28.862479851485	2
53	6867	28.862513451485	1
53	7531	32.001165868778	2
53	7532	32.001199468778	1
53	7644	32.320317768899	2
53	7649	32.320351368899	1
53	7901	32.803343029214	2
53	7902	32.803376629214	1
53	8094	33.441414184259	2
53	8095	33.441447784259	1
53	8718	36.401698781912	2
53	8720	36.401732381912	1
53	9284	39.360050318472	2
53	9285	39.360083918472	1
53	9993	42.502060262201	2
53	9994	42.502093862201	1
53	10136	42.821771124105	2
53	10137	42.821804724105	1
53	10384	43.302425152685	2
53	10385	43.302458752685	1
53	10576	43.942915964149	2
53	10577	43.942949564149	1
53	11136	46.900717642838	2
53	11137	46.900751242838	1
53	11816	49.86443850418	2
53	11817	49.86447210418	1
53	12506	53.003290996223	2
53	12507	53.003324596223	1
53	12604	53.321856434743	2
53	12605	53.321890034743	1
53	12776	53.800068188733	2
53	12777	53.800101788733	1
53	13039	54.443087486334	2
53	13044	54.443121086334	1
53	13653	57.403224134812	2
53	13655	57.403257734812	1
53	14274	60.363587797506	2
53	14275	60.363621397506	1
53	14947	63.501928798368	2
53	14949	63.501962398368	1
53	15081	63.82366071109	2
53	15082	63.82369431109	1
53	15294	64.302308769579	2
53	15295	64.302342369579	1
53	15491	64.942144048881	2
53	15492	64.942177648881	1
53	16105	67.901624994668	2
53	16107	67.901658594668	1
53	16766	70.864841021958	2
53	16767	70.864874621958	1
53	17466	74.004759501906	2
53	17467	74.004793101906	1
53	17554	74.323035903207	2
53	17555	74.323069503207	1
53	17735	74.801597962965	2
53	17737	74.801631562965	1
53	17939	75.440212448051	2
53	17940	75.440246048051	1
53	18604	78.402869968503	2
53	18609	78.402903568503	1
53	19219	81.363566852042	2
53	19220	81.363600452042	1
53	19838	84.500114831204	2
53	19839	84.500148431204	1
53	19976	84.821241382814	2
53	19977	84.821274982814	1
53	20224	85.302276998473	2
53	20225	85.302310598473	1
53	20481	85.944451892806	2
53	20482	85.944485492806	1
53	21046	88.902418131519	2
53	21047	88.902451731519	1
53	21671	91.863664075604	2
53	21672	91.863697675604	1
53	22311	95.000150074874	2
53	22316	95.000183674874	1
53	22499	95.323818734331	2
53	22504	95.323852334331	1
53	22691	95.803240911389	2
53	22692	95.803274511389	1
53	22944	96.444388091868	2
53	22945	96.444421691868	1
53	23544	99.403799111041	2
53	23549	99.403832711041	1
53	24149	102.363866661111	2
53	24150	102.363900261111	1
53	24818	105.5025552695	2
53	24819	105.5025888695	1
53	24951	105.822335542811	2
53	24952	105.822369142811	1
53	25173	106.302551435108	2
53	25175	106.302585035108	1
53	25355	106.940923872866	2
53	25357	106.940957472866	1
53	26006	109.904201923352	2
53	26007	109.904235523352	1
53	26596	112.861654183812	2
53	26601	112.861687783812	1
53	27311	116.003449870358	2
53	27312	116.003483470358	1
53	27398	116.320585265501	2
53	27399	116.320618865501	1
53	27590	116.800575387013	2
53	27591	116.800608987013	1
53	27868	117.444067725072	2
53	27873	117.444101325072	1
53	28413	120.400039067246	2
53	28414	120.400072667246	1
53	29098	123.364453436987	2
53	29099	123.364487036987	1
53	29741	126.501855224785	2
53	29743	126.501888824785	1
53	29845	126.820841116303	2
53	29850	126.820874716303	1
53	30093	127.303083471276	2
53	30094	127.303117071276	1
53	30340	127.944778910251	2
53	30345	127.944812510251	1
53	30945	130.90411315121	2
53	30946	130.90414675121	1
53	31505	133.861512156234	2
53	31510	133.861545756234	1
53	32224	137.003063633839	2
53	32226	137.003097233839	1
53	32328	137.320930463654	2
53	32329	137.320964063654	1
53	32540	137.80126342752	2
53	32541	137.80129702752	1
53	32762	138.44096223506	2
53	32764	138.44099583506	1
53	33403	141.403430223853	2
53	33404	141.403463823853	1
53	34048	144.364879018437	2
53	34049	144.364912618437	1
53	34697	147.503273589942	2
53	34698	147.503307189942	1
53	34770	147.821143091717	2
53	34771	147.821176691717	1
53	35048	148.303120820682	2
53	35053	148.303154420682	1
53	35205	148.940327910454	2
53	35206	148.940361510454	1
53	35854	151.902918282331	2
53	35856	151.902951882331	1
53	36420	154.860425013133	2
53	36421	154.860458613133	1
53	37185	158.004056224176	2
53	37186	158.004089824176	1
53	37293	158.322237548203	2
53	37294	158.322271148203	1
53	37485	158.801384580805	2
53	37486	158.801418180805	1
53	37698	159.442027709009	2
53	37699	159.442061309009	1
53	38283	162.400009572395	2
53	38284	162.400043172395	1
53	38963	165.364026441281	2
53	38964	165.364060041281	1
53	39602	168.501069354896	2
53	39603	168.501102954896	1
53	39755	168.823472216919	2
53	39756	168.823505816919	1
53	39998	169.304204966697	2
53	40007	169.304238566697	1
53	40199	169.943745182474	2
53	40201	169.943778782474	1
53	40815	172.904351058282	2
53	40816	172.904384658282	1
53	41415	175.863660858956	2
53	41416	175.863694458956	1
53	42070	179.001408150221	2
53	42071	179.001441750221	1
53	42213	179.321664154775	2
53	42214	179.321697754775	1
53	42450	179.803645541503	2
53	42455	179.803679141503	1
53	42638	180.44174193195	2
53	42639	180.44177553195	1
53	43223	183.40033072853	2
53	43224	183.40036432853	1
53	43853	186.361193618355	2
53	43854	186.361227218355	1
53	44536	189.500844044955	2
53	44538	189.500877644955	1
53	44660	189.821606313679	2
53	44661	189.821639913679	1
53	44923	190.303038376047	2
53	44924	190.303071976047	1
53	45105	190.942496772622	2
53	45106	190.942530372622	1
53	45735	193.902732324288	2
53	45736	193.902765924288	1
53	46295	196.860558141492	2
53	46296	196.860591741492	1
53	46995	200.000745319431	2
53	46996	200.000778919431	1
53	47158	200.322843884574	2
53	47159	200.322877484574	1
53	47410	200.804907251463	2
53	47411	200.804940851463	1
53	47588	201.443117400007	2
53	47589	201.443151000007	1
53	48178	204.401123229649	2
53	48179	204.401156829649	1
[...]
194	40012	169.304420734654	52
194	40204	169.944057017432	52
194	40819	172.904602736915	52
194	41439	175.864576081012	52
194	42059	179.001248854469	52
194	42252	179.322917225456	52
194	42384	179.80055989904	52
194	42612	180.440535175131	52
194	43282	183.403887349137	52
194	43842	186.360650734449	52
194	44556	189.501590531775	52
194	44694	189.823042965166	52
194	44932	190.303399437462	52
194	45129	190.943491393492	52
194	45719	193.902479209335	52
194	46348	196.863936050643	52
194	46999	200.000954371394	52
194	47177	200.323564537452	52
194	47379	200.803339992387	52
194	47617	201.444363986403	52
194	48217	204.402862057139	52
194	48822	207.364143534186	52
194	49486	210.503052216283	52
194	49578	210.820193677914	52
194	49837	211.30192615223	52
194	50009	211.940905082882	52
194	50629	214.900785070357	52
194	51254	217.862513632587	52
194	51969	221.003256796732	52
194	52142	221.324921715971	52
194	52269	221.801082439598	52
194	52562	222.444888705866	52
194	53176	225.404970273607	52
195	177	0.504627983166	72
195	250	0.822602387402	72
195	523	1.303488155977	72
195	725	1.943373761611	72
195	1305	4.902143843493	72
195	1955	7.864405022793	72
195	2585	11.00146510142	72
195	2728	11.321347397182	72
195	2905	11.800057137276	72
195	3158	12.442167194881	72
195	3738	15.400081642524	72
195	4433	18.364429811328	72
195	5097	21.504068393243	72
195	5230	21.824134121089	72
195	5392	22.300802338215	72
195	5585	22.940015497716	72
195	6243	25.901999060709	72
195	6830	28.861002580051	72
195	7515	32.000562136609	72
195	7688	32.321321663802	72
195	7915	32.804086695572	72
195	8133	33.443468728572	72
195	8712	36.401665360148	72
195	9313	39.361831221613	72
195	10032	42.503872504792	72
195	10165	42.823934300167	72
195	10333	43.301013980181	72
195	10595	43.943807183484	72
195	11170	46.901996111923	72
195	11765	49.86157511051	72
195	12480	53.002068901112	72
195	12583	53.320488298257	72
195	12835	53.802580618515	72
195	13013	54.441562554934	72
195	13623	57.401599169411	72
195	14298	60.36411670375	72
195	14982	63.504407836362	72
195	15035	63.821129044227	72
195	15317	64.30399914965	72
195	15459	64.940475617164	72
195	16065	67.900122740598	72
195	16750	70.863058957665	72
195	17385	74.000524171047	72
195	17508	74.320019300126	72
195	17750	74.802504140929	72
195	17998	75.443406678378	72
195	18623	78.404057592371	72
195	19158	81.360185905718	72
195	19882	84.502806993603	72
195	20034	84.823705119491	72
195	20278	85.304868207577	72
195	20425	85.942664347513	72
195	21090	88.904815469433	72
195	21699	91.864961217275	72
195	22345	95.00123919326	72
195	22473	95.321405599399	72
195	22715	95.803770451809	72
195	22923	96.443318290662	72
195	23558	99.40434800709	72
195	24118	102.363036207748	72
195	24796	105.501456807661	72
195	24930	105.821617390398	72
195	25133	106.300645781999	72
195	25390	106.943134133442	72
195	25960	109.901392344795	72
195	26615	112.863001958532	72
195	27335	116.004794808093	72
195	27377	116.320117051158	72
195	27669	116.804857177874	72
195	27887	117.444317538302	72
195	28487	120.40373788184	72
195	29032	123.360504631691	72
195	29736	126.501838633422	72
195	29834	126.820134190895	72
195	30082	127.302383019619	72
195	30319	127.943470736952	72
195	30929	130.903133183778	72
195	31534	133.862599698973	72
195	32264	137.004690378921	72
195	32372	137.322968110769	72
195	32514	137.800061052612	72
195	32827	138.444631141656	72
195	33422	141.40409028698	72
195	34042	144.364430960506	72
195	34661	147.501532997037	72
195	34849	147.824877046699	72
195	35072	148.304499712668	72
195	35274	148.944391800634	72
195	35804	151.900788757955	72
195	36494	154.863905015292	72
195	37194	158.004336537564	72
195	37322	158.324467472715	72
195	37534	158.80476979102	72
195	37722	159.443121271967	72
195	38302	162.400879688151	72
195	38896	165.360145723767	72
195	39596	168.500994063985	72
195	39779	168.824301117939	72
195	40012	169.304420734654	72
195	40204	169.944057017432	72
195	40819	172.904602736915	72
195	41439	175.864576081012	72
195	42059	179.001248854469	72
195	42252	179.322917225456	72
195	42384	179.80055989904	72
195	42612	180.440535175131	72
195	43282	183.403887349137	72
195	43842	186.360650734449	72
195	44556	189.501590531775	72
195	44694	189.823042965166	72
195	44932	190.303399437462	72
195	45129	190.943491393492	72
195	45719	193.902479209335	72
195	46348	196.863936050643	72
195	46999	200.000954371394	72
195	47177	200.323564537452	72
195	47379	200.803339992387	72
195	47617	201.444363986403	72
195	48217	204.402862057139	72
195	48822	207.364143534186	72
195	49486	210.503052216283	72
195	49578	210.820193677914	72
195	49837	211.30192615223	72
195	50009	211.940905082882	72
195	50629	214.900785070357	72
195	51254	217.862513632587	72
195	51969	221.003256796732	72
195	52142	221.324921715971	72
195	52269	221.801082439598	72
195	52562	222.444888705866	72
195	53176	225.404970273607	72
196	181	0.504785775772	52
196	309	0.824723344593	52
196	477	1.301790760851	52
196	734	1.944104966155	52
196	1309	4.902759081275	52
196	1884	7.860336248154	52
196	2644	11.004311548903	52
196	2767	11.322556594912	52
196	2968	11.803387059122	52
196	3191	12.443484986209	52
196	3797	15.40304588789	52
196	4407	18.363169988476	52
196	5066	21.502712285031	52
196	5164	21.820667307347	52
196	5382	22.300729350772	52
196	5594	22.940873291935	52
196	6229	25.901906985757	52
196	6824	28.860799226431	52
196	7584	32.003631135932	52
196	7717	32.324014466866	52
196	7863	32.802109096108	52
196	8086	33.441284583245	52
196	8757	36.404661476564	52
196	9322	39.362600407104	52
196	10041	42.504418897211	52
196	10158	42.823794922776	52
196	10402	43.30358016324	52
196	10584	43.943191950537	52
196	11184	46.903106962942	52
196	11779	49.86251052792	52
196	12514	53.003778689877	52
196	12597	53.32143576355	52
196	12814	53.802150728079	52
196	13027	54.441827695133	52
196	13627	57.401849703462	52
196	14247	60.36249217393	52
196	14971	63.503484136673	52
196	15094	63.823890194234	52
196	15307	64.303407890517	52
196	15454	64.940464256047	52
196	16144	67.902954845398	52
196	16679	70.86014181466	52
196	17424	74.001994237602	52
196	17567	74.323590932622	52
196	17758	74.802925229437	52
196	18012	75.444119950468	52
196	18542	78.400292837038	52
196	19152	81.360135988988	52
196	19915	84.504850484886	52
196	20039	84.823945179852	52
196	20217	85.301999729405	52
196	20409	85.941698255118	52
196	21053	88.902888532288	52
196	21628	91.860827416137	52
196	22358	95.001407183218	52
196	22527	95.324752430193	52
196	22719	95.803931594896	52
196	22927	96.443406651773	52
196	23517	99.403172803364	52
196	24107	102.362540221665	52
196	24846	105.504155521295	52
196	24959	105.823045820292	52
196	25202	106.304103625707	52
196	25364	106.941680615417	52
196	25999	109.903986306365	52
196	26624	112.864005210153	52
196	27314	116.003891151273	52
196	27381	116.320190091159	52
196	27578	116.800073229453	52
196	27880	117.444257788958	52
196	28456	120.402105088319	52
196	29051	123.360810854377	52
196	29774	126.503658371918	52
196	29873	126.821988336161	52
196	30076	127.30128162598	52
196	30283	127.940736238374	52
196	30888	130.900702034221	52
196	31507	133.861526390821	52
196	32253	137.004007025266	52
196	32340	137.321840419512	52
196	32528	137.800986279959	52
196	32746	138.440501291032	52
196	33386	141.403217262208	52
196	34011	144.363233142208	52
196	34685	147.502530536135	52
196	34828	147.824524596496	52
196	35001	148.300910547245	52
196	35258	148.944029154121	52
196	35858	151.903236395697	52
196	36458	154.86187981218	52
196	37148	158.002284042838	52
196	37266	158.32151895797	52
196	37538	158.804825353688	52
196	37671	159.440209052985	52
196	38291	162.40042354391	52
196	38956	165.36398651751	52
196	39645	168.503399493119	52
196	39703	168.820674437237	52
196	39926	169.300546544434	52
196	40157	169.942039134984	52
196	40762	172.900534003562	52
196	41393	175.862688687479	52
196	42083	179.00248861847	52
196	42266	179.324213856773	52
196	42428	179.802628394602	52
196	42626	180.441565227379	52
196	43246	183.401701585976	52
196	43875	186.361521808235	52
196	44585	189.503115750888	52
196	44638	189.820149240252	52
196	44946	190.304421029594	52
196	45088	190.942012575459	52
196	45688	193.900954856236	52
196	46351	196.863956418287	52
196	47053	200.004136097316	52
196	47191	200.323851879458	52
196	47333	200.801014607741	52
196	47626	201.44452681585	52
196	48161	204.40061764871	52
196	48850	207.364880602891	52
196	49445	210.500329650484	52
196	49618	210.821881848787	52
196	49846	211.302354445806	52
196	50033	211.942250566151	52
196	50683	214.904333943416	52
196	51263	217.863021538912	52
196	51963	221.002856512198	52
196	52096	221.323428992125	52
196	52323	221.804031962295	52
196	52516	222.442887143124	52
196	53146	225.403055504987	52
197	181	0.504785775772	0
197	309	0.824723344593	0
197	477	1.301790760851	0
197	734	1.944104966155	0
197	1309	4.902759081275	0
197	1884	7.860336248154	0
197	2644	11.004311548903	0
197	2767	11.322556594912	0
197	2968	11.803387059122	0
197	3191	12.443484986209	0
197	3797	15.40304588789	0
197	4407	18.363169988476	0
197	5066	21.502712285031	0
197	5164	21.820667307347	0
197	5382	22.300729350772	0
197	5594	22.940873291935	0
197	6229	25.901906985757	0
197	6824	28.860799226431	0
197	7584	32.003631135932	0
197	7717	32.324014466866	0
197	7863	32.802109096108	0
197	8086	33.441284583245	0
197	8757	36.404661476564	0
197	9322	39.362600407104	0
197	10041	42.504418897211	0
197	10158	42.823794922776	0
197	10402	43.30358016324	0
197	10584	43.943191950537	0
197	11184	46.903106962942	0
197	11779	49.86251052792	0
197	12514	53.003778689877	0
197	12597	53.32143576355	0
197	12814	53.802150728079	0
197	13027	54.441827695133	0
197	13627	57.401849703462	0
197	14247	60.36249217393	0
197	14971	63.503484136673	0
197	15094	63.823890194234	0
197	15307	64.303407890517	0
197	15454	64.940464256047	0
197	16144	67.902954845398	0
197	16679	70.86014181466	0
197	17424	74.001994237602	0
197	17567	74.323590932622	0
197	17758	74.802925229437	0
197	18012	75.444119950468	0
197	18542	78.400292837038	0
197	19152	81.360135988988	0
197	19915	84.504850484886	0
197	20039	84.823945179852	0
197	20217	85.301999729405	0
197	20409	85.941698255118	0
197	21053	88.902888532288	0
197	21628	91.860827416137	0
197	22358	95.001407183218	0
197	22527	95.324752430193	0
197	22719	95.803931594896	0
197	22927	96.443406651773	0
197	23517	99.403172803364	0
197	24107	102.362540221665	0
197	24846	105.504155521295	0
197	24959	105.823045820292	0
197	25202	106.304103625707	0
197	25364	106.941680615417	0
197	25999	109.903986306365	0
197	26624	112.864005210153	0
197	27314	116.003891151273	0
197	27381	116.320190091159	0
197	27578	116.800073229453	0
197	27880	117.444257788958	0
197	28456	120.402105088319	0
197	29051	123.360810854377	0
197	29774	126.503658371918	0
197	29873	126.821988336161	0
197	30076	127.30128162598	0
197	30283	127.940736238374	0
197	30888	130.900702034221	0
197	31507	133.861526390821	0
197	32253	137.004007025266	0
197	32340	137.321840419512	0
197	32528	137.800986279959	0
197	32746	138.440501291032	0
197	33386	141.403217262208	0
197	34011	144.363233142208	0
197	34685	147.502530536135	0
197	34828	147.824524596496	0
197	35001	148.300910547245	0
197	35258	148.944029154121	0
197	35858	151.903236395697	0
197	36458	154.86187981218	0
197	37148	158.002284042838	0
197	37266	158.32151895797	0
197	37538	158.804825353688	0
197	37671	159.440209052985	0
197	38291	162.40042354391	0
197	38956	165.36398651751	0
197	39645	168.503399493119	0
197	39703	168.820674437237	0
197	39926	169.300546544434	0
197	40157	169.942039134984	0
197	40762	172.900534003562	0
197	41393	175.862688687479	0
197	42083	179.00248861847	0
197	42266	179.324213856773	0
197	42428	179.802628394602	0
197	42626	180.441565227379	0
197	43246	183.401701585976	0
197	43875	186.361521808235	0
197	44585	189.503115750888	0
197	44638	189.820149240252	0
197	44946	190.304421029594	0
197	45088	190.942012575459	0
197	45688	193.900954856236	0
197	46351	196.863956418287	0
197	47053	200.004136097316	0
197	47191	200.323851879458	0
197	47333	200.801014607741	0
197	47626	201.44452681585	0
197	48161	204.40061764871	0
197	48850	207.364880602891	0
197	49445	210.500329650484	0
197	49618	210.821881848787	0
197	49846	211.302354445806	0
197	50033	211.942250566151	0
197	50683	214.904333943416	0
197	51263	217.863021538912	0
197	51963	221.002856512198	0
197	52096	221.323428992125	0
197	52323	221.804031962295	0
197	52516	222.442887143124	0
197	53146	225.403055504987	0
198	182	0.504785775772	52
198	310	0.824723344593	52
198	478	1.301790760851	52
198	735	1.944104966155	52
198	1310	4.902759081275	52
198	1885	7.860336248154	52
198	2645	11.004311548903	52
198	2768	11.322556594912	52
198	2969	11.803387059122	52
198	3192	12.443484986209	52
198	3798	15.40304588789	52
198	4408	18.363169988476	52
198	5067	21.502712285031	52
198	5165	21.820667307347	52
198	5383	22.300729350772	52
198	5595	22.940873291935	52
198	6230	25.901906985757	52
198	6825	28.860799226431	52
198	7585	32.003631135932	52
198	7718	32.324014466866	52
198	7864	32.802109096108	52
198	8087	33.441284583245	52
198	8758	36.404661476564	52
198	9323	39.362600407104	52
198	10042	42.504418897211	52
198	10159	42.823794922776	52
198	10403	43.30358016324	52
198	10585	43.943191950537	52
198	11185	46.903106962942	52
198	11780	49.86251052792	52
198	12515	53.003778689877	52
198	12598	53.32143576355	52
198	12815	53.802150728079	52
198	13028	54.441827695133	52
198	13628	57.401849703462	52
198	14248	60.36249217393	52
198	14972	63.503484136673	52
198	15095	63.823890194234	52
198	15308	64.303407890517	52
198	15455	64.940464256047	52
198	16145	67.902954845398	52
198	16680	70.86014181466	52
198	17425	74.001994237602	52
198	17568	74.323590932622	52
198	17759	74.802925229437	52
198	18013	75.444119950468	52
198	18543	78.400292837038	52
198	19153	81.360135988988	52
198	19916	84.504850484886	52
198	20040	84.823945179852	52
198	20218	85.301999729405	52
198	20410	85.941698255118	52
198	21054	88.902888532288	52
198	21629	91.860827416137	52
198	22359	95.001407183218	52
198	22528	95.324752430193	52
198	22720	95.803931594896	52
198	22928	96.443406651773	52
198	23518	99.403172803364	52
198	24108	102.362540221665	52
198	24847	105.504155521295	52
198	24960	105.823045820292	52
198	25203	106.304103625707	52
198	25365	106.941680615417	52
198	26000	109.903986306365	52
198	26625	112.864005210153	52
198	27315	116.003891151273	52
198	27382	116.320190091159	52
198	27579	116.800073229453	52
198	27881	117.444257788958	52
198	28457	120.402105088319	52
198	29052	123.360810854377	52
198	29775	126.503658371918	52
198	29874	126.821988336161	52
198	30077	127.30128162598	52
198	30284	127.940736238374	52
198	30889	130.900702034221	52
198	31508	133.861526390821	52
198	32254	137.004007025266	52
198	32341	137.321840419512	52
198	32529	137.800986279959	52
198	32747	138.440501291032	52
198	33387	141.403217262208	52
198	34012	144.363233142208	52
198	34686	147.502530536135	52
198	34829	147.824524596496	52
198	35002	148.300910547245	52
198	35259	148.944029154121	52
198	35859	151.903236395697	52
198	36459	154.86187981218	52
198	37149	158.002284042838	52
198	37267	158.32151895797	52
198	37539	158.804825353688	52
198	37672	159.440209052985	52
198	38292	162.40042354391	52
198	38957	165.36398651751	52
198	39646	168.503399493119	52
198	39704	168.820674437237	52
198	39927	169.300546544434	52
198	40158	169.942039134984	52
198	40763	172.900534003562	52
198	41394	175.862688687479	52
198	42084	179.00248861847	52
198	42267	179.324213856773	52
198	42429	179.802628394602	52
198	42627	180.441565227379	52
198	43247	183.401701585976	52
198	43876	186.361521808235	52
198	44586	189.503115750888	52
198	44639	189.820149240252	52
198	44947	190.304421029594	52
198	45089	190.942012575459	52
198	45689	193.900954856236	52
198	46352	196.863956418287	52
198	47054	200.004136097316	52
198	47192	200.323851879458	52
198	47334	200.801014607741	52
198	47627	201.44452681585	52
198	48162	204.40061764871	52
198	48851	207.364880602891	52
198	49446	210.500329650484	52
198	49619	210.821881848787	52
198	49847	211.302354445806	52
198	50034	211.942250566151	52
198	50684	214.904333943416	52
198	51264	217.863021538912	52
198	51964	221.002856512198	52
198	52097	221.323428992125	52
198	52324	221.804031962295	52
198	52517	222.442887143124	52
198	53147	225.403055504987	52
199	182	0.504785775772	72
199	310	0.824723344593	72
199	478	1.301790760851	72
199	735	1.944104966155	72
199	1310	4.902759081275	72
199	1885	7.860336248154	72
199	2645	11.004311548903	72
199	2768	11.322556594912	72
199	2969	11.803387059122	72
199	3192	12.443484986209	72
199	3798	15.40304588789	72
199	4408	18.363169988476	72
199	5067	21.502712285031	72
199	5165	21.820667307347	72
199	5383	22.300729350772	72
199	5595	22.940873291935	72
199	6230	25.901906985757	72
199	6825	28.860799226431	72
199	7585	32.003631135932	72
199	7718	32.324014466866	72
199	7864	32.802109096108	72
199	8087	33.441284583245	72
199	8758	36.404661476564	72
199	9323	39.362600407104	72
199	10042	42.504418897211	72
199	10159	42.823794922776	72
199	10403	43.30358016324	72
199	10585	43.943191950537	72
199	11185	46.903106962942	72
199	11780	49.86251052792	72
199	12515	53.003778689877	72
199	12598	53.32143576355	72
199	12815	53.802150728079	72
199	13028	54.441827695133	72
199	13628	57.401849703462	72
199	14248	60.36249217393	72
199	14972	63.503484136673	72
199	15095	63.823890194234	72
199	15308	64.303407890517	72
199	15455	64.940464256047	72
199	16145	67.902954845398	72
199	16680	70.86014181466	72
199	17425	74.001994237602	72
199	17568	74.323590932622	72
199	17759	74.802925229437	72
199	18013	75.444119950468	72
199	18543	78.400292837038	72
199	19153	81.360135988988	72
199	19916	84.504850484886	72
199	20040	84.823945179852	72
199	20218	85.301999729405	72
199	20410	85.941698255118	72
199	21054	88.902888532288	72
199	21629	91.860827416137	72
199	22359	95.001407183218	72
199	22528	95.324752430193	72
199	22720	95.803931594896	72
199	22928	96.443406651773	72
199	23518	99.403172803364	72
199	24108	102.362540221665	72
199	24847	105.504155521295	72
199	24960	105.823045820292	72
199	25203	106.304103625707	72
199	25365	106.941680615417	72
199	26000	109.903986306365	72
199	26625	112.864005210153	72
199	27315	116.003891151273	72
199	27382	116.320190091159	72
199	27579	116.800073229453	72
199	27881	117.444257788958	72
199	28457	120.402105088319	72
199	29052	123.360810854377	72
199	29775	126.503658371918	72
199	29874	126.821988336161	72
199	30077	127.30128162598	72
199	30284	127.940736238374	72
199	30889	130.900702034221	72
199	31508	133.861526390821	72
199	32254	137.004007025266	72
199	32341	137.321840419512	72
199	32529	137.800986279959	72
199	32747	138.440501291032	72
199	33387	141.403217262208	72
199	34012	144.363233142208	72
199	34686	147.502530536135	72
199	34829	147.824524596496	72
199	35002	148.300910547245	72
199	35259	148.944029154121	72
199	35859	151.903236395697	72
199	36459	154.86187981218	72
199	37149	158.002284042838	72
199	37267	158.32151895797	72
199	37539	158.804825353688	72
199	37672	159.440209052985	72
199	38292	162.40042354391	72
199	38957	165.36398651751	72
199	39646	168.503399493119	72
199	39704	168.820674437237	72
199	39927	169.300546544434	72
199	40158	169.942039134984	72
199	40763	172.900534003562	72
199	41394	175.862688687479	72
199	42084	179.00248861847	72
199	42267	179.324213856773	72
199	42429	179.802628394602	72
199	42627	180.441565227379	72
199	43247	183.401701585976	72
199	43876	186.361521808235	72
199	44586	189.503115750888	72
199	44639	189.820149240252	72
199	44947	190.304421029594	72
199	45089	190.942012575459	72
199	45689	193.900954856236	72
199	46352	196.863956418287	72
199	47054	200.004136097316	72
199	47192	200.323851879458	72
199	47334	200.801014607741	72
199	47627	201.44452681585	72
199	48162	204.40061764871	72
199	48851	207.364880602891	72
199	49446	210.500329650484	72
199	49619	210.821881848787	72
199	49847	211.302354445806	72
199	50034	211.942250566151	72
199	50684	214.904333943416	72
199	51264	217.863021538912	72
199	51964	221.002856512198	72
199	52097	221.323428992125	72
199	52324	221.804031962295	72
199	52517	222.442887143124	72
199	53147	225.403055504987	72

