version 2
run Random-0-20181219-21:45:36-33672
attr configname Random
attr datetime 20181219-21:45:36
attr experiment Random
attr inifile omnetpp.ini
attr iterationvars ""
attr iterationvarsf ""
attr measurement ""
attr network AODVNetwork
attr processid 33672
attr repetition 0
attr replication #0
attr resultdir results
attr runnumber 0
attr seedset 0
param **.host*.mobility.typename "\"LinearMobility\""
param **.host*.mobility.initFromDisplayString false
param **.host*.mobility.speed 50mps
param **.host*.mobility.angle 30deg
param **.host*.mobility.initialX uniform(100m,150m)
param **.host*.mobility.initialY uniform(100m,200m)
param *.numHosts 10
param **.wlan[*].typename "\"AckingWirelessInterface\""
param **.wlan[*].bitrate 20Mbps
param **.wlan[*].mac.headerLength 20B
param **.wlan[*].radio.typename "\"UnitDiskRadio\""
param **.wlan[*].radio.transmitter.headerLength 96b
param **.wlan[*].radio.transmitter.communicationRange 40m
param **.wlan[*].radio.transmitter.interferenceRange 40m
param **.wlan[*].radio.transmitter.detectionRange 40m
param **.wlan[*].radio.receiver.ignoreInterference true
param **.aodv.activeRouteTimeout 1s
param **.radioMedium.rangeFilter "\"communicationRange\""
param **.refillPeriod 1s
param **.radioMedium.mediumLimitCache.communicationRange 40m
param **.radioMedium.neighborCache.typename "\"NeighborListNeighborCache\""
param **.radioMedium.neighborCache.range 40m
param **.constraintAreaMinX 0m
param **.constraintAreaMinY 0m
param **.constraintAreaMaxX 600m
param **.constraintAreaMaxY 600m
param **.constraintAreaMinZ 0m
param **.constraintAreaMaxZ 0m
param **.updateInterval 0.01s
param **.wlan[*].mgmt.frameCapacity 10
param **.wlan[*].mac.retryLimit 7
param **.hasStatus true
param *.hasVisualizer true
param *.visualizer.mobilityVisualizer.moduleFilter "\"**.mobility\""
param *.visualizer.mobilityVisualizer.displayMovementTrails false
param *.visualizer.mediumVisualizer.displayCommunicationRanges true
param *.visualizer.mediumVisualizer.displayInterferenceRanges false
param *.visualizer.mediumVisualizer.displaySignals false
param *.configurator.addStaticRoutes false
param *.host*.numApps 1
param *.host*.app[0].typename "\"UdpBasicApp\""
param *.host*.app[0].localPort 100
param *.host*.app[0].sendInterval 0.5s
param *.host*.app[0].messageLength 1000B
param **.hasIpv4 true
param **.hasIpv6 false
param **.hasGn false
param *.host*.app[0].destAddresses "\"host[*]\""
param *.host*.app[0].destPort 1000

vector 0 AODVNetwork.host[0].wlan[0].queue queueLength:vector ETV
attr interpolationmode sample-hold
attr title "queue length, vector"
vector 1 AODVNetwork.host[0].wlan[0].radio radioMode:vector ETV
attr interpolationmode sample-hold
attr source radioModeChanged
attr title "Radio mode, vector"
vector 2 AODVNetwork.host[1].wlan[0].queue queueLength:vector ETV
attr interpolationmode sample-hold
attr title "queue length, vector"
vector 3 AODVNetwork.host[1].wlan[0].radio radioMode:vector ETV
attr interpolationmode sample-hold
attr source radioModeChanged
attr title "Radio mode, vector"
vector 4 AODVNetwork.host[2].wlan[0].queue queueLength:vector ETV
attr interpolationmode sample-hold
attr title "queue length, vector"
vector 5 AODVNetwork.host[2].wlan[0].radio radioMode:vector ETV
attr interpolationmode sample-hold
attr source radioModeChanged
attr title "Radio mode, vector"
vector 6 AODVNetwork.host[3].wlan[0].queue queueLength:vector ETV
attr interpolationmode sample-hold
attr title "queue length, vector"
vector 7 AODVNetwork.host[3].wlan[0].radio radioMode:vector ETV
attr interpolationmode sample-hold
attr source radioModeChanged
attr title "Radio mode, vector"
vector 8 AODVNetwork.host[4].wlan[0].queue queueLength:vector ETV
attr interpolationmode sample-hold
attr title "queue length, vector"
vector 9 AODVNetwork.host[4].wlan[0].radio radioMode:vector ETV
attr interpolationmode sample-hold
attr source radioModeChanged
attr title "Radio mode, vector"
vector 10 AODVNetwork.host[5].wlan[0].queue queueLength:vector ETV
attr interpolationmode sample-hold
attr title "queue length, vector"
vector 11 AODVNetwork.host[5].wlan[0].radio radioMode:vector ETV
attr interpolationmode sample-hold
attr source radioModeChanged
attr title "Radio mode, vector"
vector 12 AODVNetwork.host[6].wlan[0].queue queueLength:vector ETV
attr interpolationmode sample-hold
attr title "queue length, vector"
vector 13 AODVNetwork.host[6].wlan[0].radio radioMode:vector ETV
attr interpolationmode sample-hold
attr source radioModeChanged
attr title "Radio mode, vector"
vector 14 AODVNetwork.host[7].wlan[0].queue queueLength:vector ETV
attr interpolationmode sample-hold
attr title "queue length, vector"
vector 15 AODVNetwork.host[7].wlan[0].radio radioMode:vector ETV
attr interpolationmode sample-hold
attr source radioModeChanged
attr title "Radio mode, vector"
vector 16 AODVNetwork.host[8].wlan[0].queue queueLength:vector ETV
attr interpolationmode sample-hold
attr title "queue length, vector"
vector 17 AODVNetwork.host[8].wlan[0].radio radioMode:vector ETV
attr interpolationmode sample-hold
attr source radioModeChanged
attr title "Radio mode, vector"
vector 18 AODVNetwork.host[9].wlan[0].queue queueLength:vector ETV
attr interpolationmode sample-hold
attr title "queue length, vector"
vector 19 AODVNetwork.host[9].wlan[0].radio radioMode:vector ETV
attr interpolationmode sample-hold
attr source radioModeChanged
attr title "Radio mode, vector"
vector 20 AODVNetwork.host[0].wlan[0].radio receptionState:vector ETV
attr interpolationmode sample-hold
attr source receptionStateChanged
attr title "Radio reception state, vector"
vector 21 AODVNetwork.host[0].wlan[0].radio transmissionState:vector ETV
attr interpolationmode sample-hold
attr source transmissionStateChanged
attr title "Radio transmission state, vector"
vector 22 AODVNetwork.host[1].wlan[0].radio receptionState:vector ETV
attr interpolationmode sample-hold
attr source receptionStateChanged
attr title "Radio reception state, vector"
vector 23 AODVNetwork.host[1].wlan[0].radio transmissionState:vector ETV
attr interpolationmode sample-hold
attr source transmissionStateChanged
attr title "Radio transmission state, vector"
vector 24 AODVNetwork.host[2].wlan[0].radio receptionState:vector ETV
attr interpolationmode sample-hold
attr source receptionStateChanged
attr title "Radio reception state, vector"
vector 25 AODVNetwork.host[2].wlan[0].radio transmissionState:vector ETV
attr interpolationmode sample-hold
attr source transmissionStateChanged
attr title "Radio transmission state, vector"
vector 26 AODVNetwork.host[3].wlan[0].radio receptionState:vector ETV
attr interpolationmode sample-hold
attr source receptionStateChanged
attr title "Radio reception state, vector"
vector 27 AODVNetwork.host[3].wlan[0].radio transmissionState:vector ETV
attr interpolationmode sample-hold
attr source transmissionStateChanged
attr title "Radio transmission state, vector"
vector 28 AODVNetwork.host[4].wlan[0].radio receptionState:vector ETV
attr interpolationmode sample-hold
attr source receptionStateChanged
attr title "Radio reception state, vector"
vector 29 AODVNetwork.host[4].wlan[0].radio transmissionState:vector ETV
attr interpolationmode sample-hold
attr source transmissionStateChanged
attr title "Radio transmission state, vector"
vector 30 AODVNetwork.host[5].wlan[0].radio receptionState:vector ETV
attr interpolationmode sample-hold
attr source receptionStateChanged
attr title "Radio reception state, vector"
vector 31 AODVNetwork.host[5].wlan[0].radio transmissionState:vector ETV
attr interpolationmode sample-hold
attr source transmissionStateChanged
attr title "Radio transmission state, vector"
vector 32 AODVNetwork.host[6].wlan[0].radio receptionState:vector ETV
attr interpolationmode sample-hold
attr source receptionStateChanged
attr title "Radio reception state, vector"
vector 33 AODVNetwork.host[6].wlan[0].radio transmissionState:vector ETV
attr interpolationmode sample-hold
attr source transmissionStateChanged
attr title "Radio transmission state, vector"
vector 34 AODVNetwork.host[7].wlan[0].radio receptionState:vector ETV
attr interpolationmode sample-hold
attr source receptionStateChanged
attr title "Radio reception state, vector"
vector 35 AODVNetwork.host[7].wlan[0].radio transmissionState:vector ETV
attr interpolationmode sample-hold
attr source transmissionStateChanged
attr title "Radio transmission state, vector"
vector 36 AODVNetwork.host[8].wlan[0].radio receptionState:vector ETV
attr interpolationmode sample-hold
attr source receptionStateChanged
attr title "Radio reception state, vector"
vector 37 AODVNetwork.host[8].wlan[0].radio transmissionState:vector ETV
attr interpolationmode sample-hold
attr source transmissionStateChanged
attr title "Radio transmission state, vector"
vector 38 AODVNetwork.host[9].wlan[0].radio receptionState:vector ETV
attr interpolationmode sample-hold
attr source receptionStateChanged
attr title "Radio reception state, vector"
vector 39 AODVNetwork.host[9].wlan[0].radio transmissionState:vector ETV
attr interpolationmode sample-hold
attr source transmissionStateChanged
attr title "Radio transmission state, vector"
vector 40 AODVNetwork.host[0].app[0] packetSent:vector(packetBytes) ETV
attr interpolationmode none
attr source packetSent
attr title "packets sent, vector(packetBytes)"
vector 41 AODVNetwork.host[1].app[0] packetSent:vector(packetBytes) ETV
attr interpolationmode none
attr source packetSent
attr title "packets sent, vector(packetBytes)"
vector 42 AODVNetwork.host[2].app[0] packetSent:vector(packetBytes) ETV
attr interpolationmode none
attr source packetSent
attr title "packets sent, vector(packetBytes)"
vector 43 AODVNetwork.host[3].app[0] packetSent:vector(packetBytes) ETV
attr interpolationmode none
attr source packetSent
attr title "packets sent, vector(packetBytes)"
vector 44 AODVNetwork.host[4].app[0] packetSent:vector(packetBytes) ETV
attr interpolationmode none
attr source packetSent
attr title "packets sent, vector(packetBytes)"
vector 45 AODVNetwork.host[5].app[0] packetSent:vector(packetBytes) ETV
attr interpolationmode none
attr source packetSent
attr title "packets sent, vector(packetBytes)"
vector 46 AODVNetwork.host[6].app[0] packetSent:vector(packetBytes) ETV
attr interpolationmode none
attr source packetSent
attr title "packets sent, vector(packetBytes)"
vector 47 AODVNetwork.host[7].app[0] packetSent:vector(packetBytes) ETV
attr interpolationmode none
attr source packetSent
attr title "packets sent, vector(packetBytes)"
vector 48 AODVNetwork.host[8].app[0] packetSent:vector(packetBytes) ETV
attr interpolationmode none
attr source packetSent
attr title "packets sent, vector(packetBytes)"
vector 49 AODVNetwork.host[9].app[0] packetSent:vector(packetBytes) ETV
attr interpolationmode none
attr source packetSent
attr title "packets sent, vector(packetBytes)"
vector 50 AODVNetwork.host[0].udp packetSent:vector(packetBytes) ETV
attr interpolationmode none
attr source packetSent
attr title "packets sent, vector(packetBytes)"
vector 51 AODVNetwork.host[1].udp packetSent:vector(packetBytes) ETV
attr interpolationmode none
attr source packetSent
attr title "packets sent, vector(packetBytes)"
vector 52 AODVNetwork.host[2].udp packetSent:vector(packetBytes) ETV
attr interpolationmode none
attr source packetSent
attr title "packets sent, vector(packetBytes)"
vector 53 AODVNetwork.host[3].udp packetSent:vector(packetBytes) ETV
attr interpolationmode none
attr source packetSent
attr title "packets sent, vector(packetBytes)"
vector 54 AODVNetwork.host[4].udp packetSent:vector(packetBytes) ETV
attr interpolationmode none
attr source packetSent
attr title "packets sent, vector(packetBytes)"
vector 55 AODVNetwork.host[5].udp packetSent:vector(packetBytes) ETV
attr interpolationmode none
attr source packetSent
attr title "packets sent, vector(packetBytes)"
vector 56 AODVNetwork.host[6].udp packetSent:vector(packetBytes) ETV
attr interpolationmode none
attr source packetSent
attr title "packets sent, vector(packetBytes)"
vector 57 AODVNetwork.host[7].udp packetSent:vector(packetBytes) ETV
attr interpolationmode none
attr source packetSent
attr title "packets sent, vector(packetBytes)"
vector 58 AODVNetwork.host[8].udp packetSent:vector(packetBytes) ETV
attr interpolationmode none
attr source packetSent
attr title "packets sent, vector(packetBytes)"
vector 59 AODVNetwork.host[9].udp packetSent:vector(packetBytes) ETV
attr interpolationmode none
attr source packetSent
attr title "packets sent, vector(packetBytes)"
vector 60 AODVNetwork.host[0].lo[0].lo rcvdPkFromHl:vector(packetBytes) ETV
attr interpolationmode none
attr source packetReceivedFromUpper
attr title "packets received from higher layer, vector(packetBytes)"
vector 61 AODVNetwork.host[0].lo[0].lo passedUpPk:vector(packetBytes) ETV
attr interpolationmode none
attr source packetSentToUpper
attr title "packets passed to higher layer, vector(packetBytes)"
vector 62 AODVNetwork.host[0].udp packetReceived:vector(packetBytes) ETV
attr interpolationmode none
attr source packetReceived
attr title "packets received, vector(packetBytes)"
vector 63 AODVNetwork.host[0].udp droppedPkWrongPort:vector(count) ETV
attr interpolationmode none
attr source packetDropReasonIsNoPortFound(packetDropped)
attr title "packets dropped (wrong port), vector(count)"
vector 64 AODVNetwork.host[6].wlan[0].queue packetReceived:vector(packetBytes) ETV
attr interpolationmode none
attr title "received packets, vector(packetBytes)"
vector 65 AODVNetwork.host[6].wlan[0].queue queueingTime:vector ETV
attr interpolationmode none
attr title "queueing time, vector"
vector 66 AODVNetwork.host[6].wlan[0].mac rcvdPkFromHl:vector(packetBytes) ETV
attr interpolationmode none
attr source packetReceivedFromUpper
attr title "packets received from higher layer, vector(packetBytes)"
vector 67 AODVNetwork.host[6].wlan[0].mac sentDownPk:vector(packetBytes) ETV
attr interpolationmode none
attr source packetSentToLower
attr title "packets sent to lower layer, vector(packetBytes)"
vector 68 AODVNetwork.host[0].wlan[0].mac rcvdPkFromLl:vector(packetBytes) ETV
attr interpolationmode none
attr source packetReceivedFromLower
attr title "packets received from lower layer, vector(packetBytes)"
vector 69 AODVNetwork.host[0].wlan[0].mac passedUpPk:vector(packetBytes) ETV
attr interpolationmode none
attr source packetSentToUpper
attr title "packets passed to higher layer, vector(packetBytes)"
vector 70 AODVNetwork.host[0].ipv4.arp arpRequestSent:vector(packetBytes) ETV
attr source arpRequestSent
attr title "ARP request sent, vector(packetBytes)"
vector 71 AODVNetwork.host[0].wlan[0].queue packetReceived:vector(packetBytes) ETV
attr interpolationmode none
attr title "received packets, vector(packetBytes)"
vector 72 AODVNetwork.host[0].wlan[0].queue queueingTime:vector ETV
attr interpolationmode none
attr title "queueing time, vector"
vector 73 AODVNetwork.host[0].wlan[0].mac rcvdPkFromHl:vector(packetBytes) ETV
attr interpolationmode none
attr source packetReceivedFromUpper
attr title "packets received from higher layer, vector(packetBytes)"
vector 74 AODVNetwork.host[0].wlan[0].mac sentDownPk:vector(packetBytes) ETV
attr interpolationmode none
attr source packetSentToLower
attr title "packets sent to lower layer, vector(packetBytes)"
vector 75 AODVNetwork.host[2].wlan[0].mac rcvdPkFromLl:vector(packetBytes) ETV
attr interpolationmode none
attr source packetReceivedFromLower
attr title "packets received from lower layer, vector(packetBytes)"
vector 76 AODVNetwork.host[2].wlan[0].mac passedUpPk:vector(packetBytes) ETV
attr interpolationmode none
attr source packetSentToUpper
attr title "packets passed to higher layer, vector(packetBytes)"
vector 77 AODVNetwork.host[7].wlan[0].mac rcvdPkFromLl:vector(packetBytes) ETV
attr interpolationmode none
attr source packetReceivedFromLower
attr title "packets received from lower layer, vector(packetBytes)"
vector 78 AODVNetwork.host[7].wlan[0].mac passedUpPk:vector(packetBytes) ETV
attr interpolationmode none
attr source packetSentToUpper
attr title "packets passed to higher layer, vector(packetBytes)"
vector 79 AODVNetwork.host[6].wlan[0].mac rcvdPkFromLl:vector(packetBytes) ETV
attr interpolationmode none
attr source packetReceivedFromLower
attr title "packets received from lower layer, vector(packetBytes)"
vector 80 AODVNetwork.host[6].wlan[0].mac passedUpPk:vector(packetBytes) ETV
attr interpolationmode none
attr source packetSentToUpper
attr title "packets passed to higher layer, vector(packetBytes)"
vector 81 AODVNetwork.host[6].ipv4.arp arpReplySent:vector(packetBytes) ETV
attr source arpReplySent
attr title "ARP replies sent, vector(packetBytes)"
vector 82 AODVNetwork.host[2].wlan[0].mac packetDropNotAddressedToUs:vector(packetBytes) ETV
attr interpolationmode none
attr source packetDropReasonIsNotAddressedToUs(packetDropped)
attr title "packet drop: not addressed to us, vector(packetBytes)"
vector 83 AODVNetwork.host[7].wlan[0].mac packetDropNotAddressedToUs:vector(packetBytes) ETV
attr interpolationmode none
attr source packetDropReasonIsNotAddressedToUs(packetDropped)
attr title "packet drop: not addressed to us, vector(packetBytes)"
vector 84 AODVNetwork.host[8].wlan[0].queue packetReceived:vector(packetBytes) ETV
attr interpolationmode none
attr title "received packets, vector(packetBytes)"
vector 85 AODVNetwork.host[8].wlan[0].queue queueingTime:vector ETV
attr interpolationmode none
attr title "queueing time, vector"
vector 86 AODVNetwork.host[8].wlan[0].mac rcvdPkFromHl:vector(packetBytes) ETV
attr interpolationmode none
attr source packetReceivedFromUpper
attr title "packets received from higher layer, vector(packetBytes)"
vector 87 AODVNetwork.host[8].wlan[0].mac sentDownPk:vector(packetBytes) ETV
attr interpolationmode none
attr source packetSentToLower
attr title "packets sent to lower layer, vector(packetBytes)"
vector 88 AODVNetwork.host[4].wlan[0].mac rcvdPkFromLl:vector(packetBytes) ETV
attr interpolationmode none
attr source packetReceivedFromLower
attr title "packets received from lower layer, vector(packetBytes)"
vector 89 AODVNetwork.host[4].wlan[0].mac passedUpPk:vector(packetBytes) ETV
attr interpolationmode none
attr source packetSentToUpper
attr title "packets passed to higher layer, vector(packetBytes)"
vector 90 AODVNetwork.host[5].wlan[0].mac rcvdPkFromLl:vector(packetBytes) ETV
attr interpolationmode none
attr source packetReceivedFromLower
attr title "packets received from lower layer, vector(packetBytes)"
vector 91 AODVNetwork.host[5].wlan[0].mac passedUpPk:vector(packetBytes) ETV
attr interpolationmode none
attr source packetSentToUpper
attr title "packets passed to higher layer, vector(packetBytes)"
vector 92 AODVNetwork.host[3].wlan[0].mac rcvdPkFromLl:vector(packetBytes) ETV
attr interpolationmode none
attr source packetReceivedFromLower
attr title "packets received from lower layer, vector(packetBytes)"
vector 93 AODVNetwork.host[3].wlan[0].mac passedUpPk:vector(packetBytes) ETV
attr interpolationmode none
attr source packetSentToUpper
attr title "packets passed to higher layer, vector(packetBytes)"
vector 94 AODVNetwork.host[4].wlan[0].queue packetReceived:vector(packetBytes) ETV
attr interpolationmode none
attr title "received packets, vector(packetBytes)"
vector 95 AODVNetwork.host[4].wlan[0].queue queueingTime:vector ETV
attr interpolationmode none
attr title "queueing time, vector"
vector 96 AODVNetwork.host[4].wlan[0].mac rcvdPkFromHl:vector(packetBytes) ETV
attr interpolationmode none
attr source packetReceivedFromUpper
attr title "packets received from higher layer, vector(packetBytes)"
vector 97 AODVNetwork.host[4].wlan[0].mac sentDownPk:vector(packetBytes) ETV
attr interpolationmode none
attr source packetSentToLower
attr title "packets sent to lower layer, vector(packetBytes)"
vector 98 AODVNetwork.host[8].wlan[0].mac rcvdPkFromLl:vector(packetBytes) ETV
attr interpolationmode none
attr source packetReceivedFromLower
attr title "packets received from lower layer, vector(packetBytes)"
vector 99 AODVNetwork.host[8].wlan[0].mac passedUpPk:vector(packetBytes) ETV
attr interpolationmode none
attr source packetSentToUpper
attr title "packets passed to higher layer, vector(packetBytes)"
vector 100 AODVNetwork.host[9].wlan[0].mac rcvdPkFromLl:vector(packetBytes) ETV
attr interpolationmode none
attr source packetReceivedFromLower
attr title "packets received from lower layer, vector(packetBytes)"
vector 101 AODVNetwork.host[9].wlan[0].mac passedUpPk:vector(packetBytes) ETV
attr interpolationmode none
attr source packetSentToUpper
attr title "packets passed to higher layer, vector(packetBytes)"
vector 102 AODVNetwork.host[7].wlan[0].queue packetReceived:vector(packetBytes) ETV
attr interpolationmode none
attr title "received packets, vector(packetBytes)"
vector 103 AODVNetwork.host[7].wlan[0].queue queueingTime:vector ETV
attr interpolationmode none
attr title "queueing time, vector"
vector 104 AODVNetwork.host[7].wlan[0].mac rcvdPkFromHl:vector(packetBytes) ETV
attr interpolationmode none
attr source packetReceivedFromUpper
attr title "packets received from higher layer, vector(packetBytes)"
vector 105 AODVNetwork.host[7].wlan[0].mac sentDownPk:vector(packetBytes) ETV
attr interpolationmode none
attr source packetSentToLower
attr title "packets sent to lower layer, vector(packetBytes)"
vector 106 AODVNetwork.host[6].ipv4.arp arpRequestSent:vector(packetBytes) ETV
attr source arpRequestSent
attr title "ARP request sent, vector(packetBytes)"
vector 107 AODVNetwork.host[9].wlan[0].queue packetReceived:vector(packetBytes) ETV
attr interpolationmode none
attr title "received packets, vector(packetBytes)"
vector 108 AODVNetwork.host[9].wlan[0].queue queueingTime:vector ETV
attr interpolationmode none
attr title "queueing time, vector"
vector 109 AODVNetwork.host[9].wlan[0].mac rcvdPkFromHl:vector(packetBytes) ETV
attr interpolationmode none
attr source packetReceivedFromUpper
attr title "packets received from higher layer, vector(packetBytes)"
vector 110 AODVNetwork.host[9].wlan[0].mac sentDownPk:vector(packetBytes) ETV
attr interpolationmode none
attr source packetSentToLower
attr title "packets sent to lower layer, vector(packetBytes)"
vector 111 AODVNetwork.host[2].wlan[0].queue packetReceived:vector(packetBytes) ETV
attr interpolationmode none
attr title "received packets, vector(packetBytes)"
vector 112 AODVNetwork.host[2].wlan[0].queue queueingTime:vector ETV
attr interpolationmode none
attr title "queueing time, vector"
vector 113 AODVNetwork.host[2].wlan[0].mac rcvdPkFromHl:vector(packetBytes) ETV
attr interpolationmode none
attr source packetReceivedFromUpper
attr title "packets received from higher layer, vector(packetBytes)"
vector 114 AODVNetwork.host[2].wlan[0].mac sentDownPk:vector(packetBytes) ETV
attr interpolationmode none
attr source packetSentToLower
attr title "packets sent to lower layer, vector(packetBytes)"
vector 115 AODVNetwork.host[7].ipv4.arp arpReplySent:vector(packetBytes) ETV
attr source arpReplySent
attr title "ARP replies sent, vector(packetBytes)"
vector 116 AODVNetwork.host[1].wlan[0].mac rcvdPkFromLl:vector(packetBytes) ETV
attr interpolationmode none
attr source packetReceivedFromLower
attr title "packets received from lower layer, vector(packetBytes)"
vector 117 AODVNetwork.host[1].wlan[0].mac passedUpPk:vector(packetBytes) ETV
attr interpolationmode none
attr source packetSentToUpper
attr title "packets passed to higher layer, vector(packetBytes)"
vector 118 AODVNetwork.host[8].wlan[0].mac packetDropNotAddressedToUs:vector(packetBytes) ETV
attr interpolationmode none
attr source packetDropReasonIsNotAddressedToUs(packetDropped)
attr title "packet drop: not addressed to us, vector(packetBytes)"
vector 119 AODVNetwork.host[0].wlan[0].mac packetDropNotAddressedToUs:vector(packetBytes) ETV
attr interpolationmode none
attr source packetDropReasonIsNotAddressedToUs(packetDropped)
attr title "packet drop: not addressed to us, vector(packetBytes)"
vector 120 AODVNetwork.host[5].wlan[0].mac packetDropNotAddressedToUs:vector(packetBytes) ETV
attr interpolationmode none
attr source packetDropReasonIsNotAddressedToUs(packetDropped)
attr title "packet drop: not addressed to us, vector(packetBytes)"
vector 121 AODVNetwork.host[7].ipv4.arp arpRequestSent:vector(packetBytes) ETV
attr source arpRequestSent
attr title "ARP request sent, vector(packetBytes)"
vector 122 AODVNetwork.host[4].ipv4.arp arpReplySent:vector(packetBytes) ETV
attr source arpReplySent
attr title "ARP replies sent, vector(packetBytes)"
vector 123 AODVNetwork.host[3].wlan[0].mac packetDropNotAddressedToUs:vector(packetBytes) ETV
attr interpolationmode none
attr source packetDropReasonIsNotAddressedToUs(packetDropped)
attr title "packet drop: not addressed to us, vector(packetBytes)"
vector 124 AODVNetwork.host[9].wlan[0].mac packetDropNotAddressedToUs:vector(packetBytes) ETV
attr interpolationmode none
attr source packetDropReasonIsNotAddressedToUs(packetDropped)
attr title "packet drop: not addressed to us, vector(packetBytes)"
vector 125 AODVNetwork.host[6].wlan[0].mac packetDropNotAddressedToUs:vector(packetBytes) ETV
attr interpolationmode none
attr source packetDropReasonIsNotAddressedToUs(packetDropped)
attr title "packet drop: not addressed to us, vector(packetBytes)"
vector 126 AODVNetwork.host[3].wlan[0].queue packetReceived:vector(packetBytes) ETV
attr interpolationmode none
attr title "received packets, vector(packetBytes)"
vector 127 AODVNetwork.host[3].wlan[0].queue queueingTime:vector ETV
attr interpolationmode none
attr title "queueing time, vector"
vector 128 AODVNetwork.host[3].wlan[0].mac rcvdPkFromHl:vector(packetBytes) ETV
attr interpolationmode none
attr source packetReceivedFromUpper
attr title "packets received from higher layer, vector(packetBytes)"
vector 129 AODVNetwork.host[3].wlan[0].mac sentDownPk:vector(packetBytes) ETV
attr interpolationmode none
attr source packetSentToLower
attr title "packets sent to lower layer, vector(packetBytes)"
vector 130 AODVNetwork.host[4].ipv4.arp arpRequestSent:vector(packetBytes) ETV
attr source arpRequestSent
attr title "ARP request sent, vector(packetBytes)"
vector 131 AODVNetwork.host[3].ipv4.arp arpReplySent:vector(packetBytes) ETV
attr source arpReplySent
attr title "ARP replies sent, vector(packetBytes)"
vector 132 AODVNetwork.host[1].wlan[0].mac packetDropNotAddressedToUs:vector(packetBytes) ETV
attr interpolationmode none
attr source packetDropReasonIsNotAddressedToUs(packetDropped)
attr title "packet drop: not addressed to us, vector(packetBytes)"
vector 133 AODVNetwork.host[1].wlan[0].queue packetReceived:vector(packetBytes) ETV
attr interpolationmode none
attr title "received packets, vector(packetBytes)"
vector 134 AODVNetwork.host[1].wlan[0].queue queueingTime:vector ETV
attr interpolationmode none
attr title "queueing time, vector"
vector 135 AODVNetwork.host[1].wlan[0].mac rcvdPkFromHl:vector(packetBytes) ETV
attr interpolationmode none
attr source packetReceivedFromUpper
attr title "packets received from higher layer, vector(packetBytes)"
vector 136 AODVNetwork.host[1].wlan[0].mac sentDownPk:vector(packetBytes) ETV
attr interpolationmode none
attr source packetSentToLower
attr title "packets sent to lower layer, vector(packetBytes)"
vector 137 AODVNetwork.host[5].wlan[0].queue packetReceived:vector(packetBytes) ETV
attr interpolationmode none
attr title "received packets, vector(packetBytes)"
vector 138 AODVNetwork.host[5].wlan[0].queue queueingTime:vector ETV
attr interpolationmode none
attr title "queueing time, vector"
vector 139 AODVNetwork.host[5].wlan[0].mac rcvdPkFromHl:vector(packetBytes) ETV
attr interpolationmode none
attr source packetReceivedFromUpper
attr title "packets received from higher layer, vector(packetBytes)"
vector 140 AODVNetwork.host[5].wlan[0].mac sentDownPk:vector(packetBytes) ETV
attr interpolationmode none
attr source packetSentToLower
attr title "packets sent to lower layer, vector(packetBytes)"
vector 141 AODVNetwork.host[3].ipv4.arp arpRequestSent:vector(packetBytes) ETV
attr source arpRequestSent
attr title "ARP request sent, vector(packetBytes)"
vector 142 AODVNetwork.host[5].ipv4.arp arpReplySent:vector(packetBytes) ETV
attr source arpReplySent
attr title "ARP replies sent, vector(packetBytes)"
vector 143 AODVNetwork.host[4].wlan[0].mac packetDropNotAddressedToUs:vector(packetBytes) ETV
attr interpolationmode none
attr source packetDropReasonIsNotAddressedToUs(packetDropped)
attr title "packet drop: not addressed to us, vector(packetBytes)"
vector 144 AODVNetwork.host[8].ipv4.arp arpReplySent:vector(packetBytes) ETV
attr source arpReplySent
attr title "ARP replies sent, vector(packetBytes)"
vector 145 AODVNetwork.host[1].ipv4.arp arpReplySent:vector(packetBytes) ETV
attr source arpReplySent
attr title "ARP replies sent, vector(packetBytes)"
vector 146 AODVNetwork.host[0].ipv4.arp arpReplySent:vector(packetBytes) ETV
attr source arpReplySent
attr title "ARP replies sent, vector(packetBytes)"
vector 147 AODVNetwork.host[9].ipv4.arp arpReplySent:vector(packetBytes) ETV
attr source arpReplySent
attr title "ARP replies sent, vector(packetBytes)"
vector 148 AODVNetwork.host[5].ipv4.arp arpRequestSent:vector(packetBytes) ETV
attr source arpRequestSent
attr title "ARP request sent, vector(packetBytes)"
vector 149 AODVNetwork.host[2].ipv4.arp arpReplySent:vector(packetBytes) ETV
attr source arpReplySent
attr title "ARP replies sent, vector(packetBytes)"
vector 150 AODVNetwork.host[8].ipv4.arp arpRequestSent:vector(packetBytes) ETV
attr source arpRequestSent
attr title "ARP request sent, vector(packetBytes)"
vector 151 AODVNetwork.host[9].ipv4.arp arpRequestSent:vector(packetBytes) ETV
attr source arpRequestSent
attr title "ARP request sent, vector(packetBytes)"
vector 152 AODVNetwork.host[0].ipv4.ip packetDropAddressResolutionFailed:vector(packetBytes) ETV
attr interpolationmode none
attr source packetDropReasonIsAddressResolutionFailed(packetDropped)
attr title "packet drop: address resolution failed, vector(packetBytes)"
vector 153 AODVNetwork.host[6].ipv4.ip packetDropAddressResolutionFailed:vector(packetBytes) ETV
attr interpolationmode none
attr source packetDropReasonIsAddressResolutionFailed(packetDropped)
attr title "packet drop: address resolution failed, vector(packetBytes)"
vector 154 AODVNetwork.host[7].ipv4.ip packetDropAddressResolutionFailed:vector(packetBytes) ETV
attr interpolationmode none
attr source packetDropReasonIsAddressResolutionFailed(packetDropped)
attr title "packet drop: address resolution failed, vector(packetBytes)"
vector 155 AODVNetwork.host[2].ipv4.arp arpRequestSent:vector(packetBytes) ETV
attr source arpRequestSent
attr title "ARP request sent, vector(packetBytes)"
vector 156 AODVNetwork.host[6].ipv4.ip packetDropHopLimitReached:vector(packetBytes) ETV
attr interpolationmode none
attr source packetDropReasonIsHopLimitReached(packetDropped)
attr title "packet drop: hop limit reached, vector(packetBytes)"
vector 157 AODVNetwork.host[9].ipv4.ip packetDropAddressResolutionFailed:vector(packetBytes) ETV
attr interpolationmode none
attr source packetDropReasonIsAddressResolutionFailed(packetDropped)
attr title "packet drop: address resolution failed, vector(packetBytes)"
vector 158 AODVNetwork.host[1].ipv4.arp arpRequestSent:vector(packetBytes) ETV
attr source arpRequestSent
attr title "ARP request sent, vector(packetBytes)"
vector 159 AODVNetwork.host[4].ipv4.ip packetDropAddressResolutionFailed:vector(packetBytes) ETV
attr interpolationmode none
attr source packetDropReasonIsAddressResolutionFailed(packetDropped)
attr title "packet drop: address resolution failed, vector(packetBytes)"
vector 160 AODVNetwork.host[8].ipv4.ip packetDropAddressResolutionFailed:vector(packetBytes) ETV
attr interpolationmode none
attr source packetDropReasonIsAddressResolutionFailed(packetDropped)
attr title "packet drop: address resolution failed, vector(packetBytes)"
vector 161 AODVNetwork.host[1].ipv4.ip packetDropAddressResolutionFailed:vector(packetBytes) ETV
attr interpolationmode none
attr source packetDropReasonIsAddressResolutionFailed(packetDropped)
attr title "packet drop: address resolution failed, vector(packetBytes)"
0	0	0	0
0	1481	0.503830555481	1
0	1850	0.504852019309	2
0	2515	0.602109826975	1
0	2530	0.602141932464	0
0	3665	0.610103617257	1
0	3677	0.610106817257	0
0	7216	1.12674400496	1
0	7290	1.127592113502	2
0	7311	1.127714450285	3
0	7320	1.128016167773	4
0	7398	1.128793295369	5
0	7523	1.226319950689	4
0	7538	1.226355256178	3
0	7568	1.226390510449	2
0	7612	1.226424110449	1
0	7772	1.229170934569	2
0	7910	1.326424110449	1
0	7919	1.326457710449	0
0	8535	1.453695062378	1
0	8558	1.453730316649	0
0	23567	6.405935942654	1
0	24468	6.500424019138	2
0	24496	6.501593006592	1
0	24505	6.501626606592	0
0	24544	6.501658644868	1
0	24545	6.501658644868	2
0	24546	6.501658644868	3
0	24547	6.501658644868	4
0	24548	6.501658644868	5
0	24549	6.501658644868	6
0	24550	6.501658644868	7
0	24558	6.50166182573	6
0	24580	6.501697044868	5
0	24620	6.501732264006	4
0	24638	6.501767483144	3
0	24657	6.501802702282	2
0	24676	6.50183792142	1
0	24695	6.501873140558	0
0	30770	7.500848123833	1
0	31081	7.600424019138	0
0	40150	9.369648262374	1
0	40166	9.369649862374	0
0	40716	9.378215150747	1
0	40893	9.477791026076	0
0	57413	14.080113729991	1
0	57541	14.100424019138	0
0	59982	14.702088638806	1
0	59983	14.702088638806	2
0	59984	14.702088638806	3
0	59985	14.702088638806	4
0	59986	14.702088638806	5
0	59987	14.702088638806	6
0	59988	14.702088638806	7
0	59989	14.702088638806	8
0	59990	14.702088638806	9
0	60013	14.702123893077	8
0	60046	14.702159147348	7
0	60101	14.702194401619	6
0	60181	14.70222965589	5
0	60278	14.702264910161	4
0	60375	14.702300164432	3
0	60447	14.702335418703	2
0	60485	14.702370672974	1
0	60505	14.702405927245	0
0	61038	14.802473337685	1
0	61039	14.802473337685	2
0	61040	14.802473337685	3
0	61041	14.802473337685	4
0	61042	14.802473337685	5
0	61043	14.802473337685	6
0	61044	14.802473337685	7
0	61045	14.802473337685	8
0	61046	14.802473337685	9
0	61154	14.805789021863	10
0	61759	14.827694723075	11
0	62099	14.902473337685	10
0	62112	14.902508591956	9
0	62134	14.902543846227	8
0	62156	14.902579100498	7
0	62178	14.902614354769	6
0	62200	14.90264960904	5
0	62222	14.902684863311	4
0	62244	14.902720117582	3
0	62266	14.902755371853	2
0	62288	14.902790626124	1
0	62306	14.902819426124	0
0	71725	16.68702061446	1
0	71746	16.701272126039	0
0	71864	16.701386110756	1
0	71865	16.701386110756	2
0	71866	16.701386110756	3
0	71867	16.701386110756	4
0	71868	16.701386110756	5
0	71869	16.701386110756	6
0	71870	16.701386110756	7
0	71871	16.701386110756	8
0	71872	16.701386110756	9
0	71873	16.701386110756	10
0	71874	16.701386110756	11
0	71903	16.701421406925	10
0	71928	16.701456703088	9
0	71953	16.701491999246	8
0	71978	16.701527295398	7
0	72003	16.701562591545	6
0	72028	16.701597887687	5
0	72053	16.701633183823	4
0	72078	16.701668479954	3
0	72103	16.701703776079	2
0	72128	16.701739072199	1
0	72153	16.701774368314	0
0	72934	16.735193873049	1
0	72935	16.735193873049	2
0	72936	16.735193873049	3
0	72937	16.735193873049	4
0	72966	16.735225964078	3
0	73013	16.735261255102	2
0	73036	16.735293346121	1
0	73059	16.735325437135	0
0	73207	16.741212775148	1
0	73208	16.741212775148	2
0	73434	16.824950785449	3
0	73874	16.841212775148	2
0	73891	16.84124803345	1
0	73916	16.841272091747	0
0	74990	17.039095461632	1
0	75645	17.13552088426	0
0	75781	17.135634957166	1
0	75813	17.135670275381	0
0	77086	17.501757310818	1
0	77499	17.504317395376	2
0	77867	17.507748243301	3
0	78216	17.600424061449	2
0	78228	17.600448061449	1
0	78253	17.600480080587	0
0	78308	17.600976447002	1
0	78382	17.604704615179	2
0	78483	17.60558482685	3
0	78738	17.700480080587	2
0	78750	17.700515280587	1
0	78808	17.700547372306	0
0	79641	17.820940164765	1
0	79642	17.820940164765	2
0	79643	17.820940164765	3
0	80293	17.826132230163	4
0	80832	17.838560665988	5
0	80864	17.838984778653	6
0	80896	17.839408891383	7
0	80928	17.839833004179	8
0	81131	17.920940164765	7
0	81147	17.920972196423	6
0	81178	17.92100422808	5
0	81209	17.921036259736	4
0	81242	17.921068294221	3
0	81271	17.921103525876	2
0	81318	17.92113875753	1
0	81370	17.921173989183	0
0	82672	18.021652633631	1
0	82781	18.022119070527	2
0	82783	18.022236557282	3
0	82857	18.037784425296	4
0	82941	18.0378516724	5
0	83174	18.100424019138	4
0	83190	18.100456059133	3
0	83215	18.100489659133	2
0	83274	18.100521739133	3
0	83282	18.100523259133	2
0	83329	18.100558514673	1
0	83360	18.100590570218	0
0	84750	18.303550971054	1
0	84751	18.303550971054	2
0	84752	18.303550971054	3
0	84789	18.30358307038	2
0	84818	18.303615169708	1
0	84847	18.303650469039	0
0	89635	19.227177978778	1
0	90632	19.327177978778	0
0	95432	20.32190117791	1
0	95944	20.420034245456	0
0	109417	25.23345192072	1
0	109418	25.23345192072	2
0	109419	25.23345192072	3
0	109420	25.23345192072	4
0	109421	25.23345192072	5
0	109422	25.23345192072	6
0	109423	25.23345192072	7
0	109424	25.23345192072	8
0	109425	25.23345192072	9
0	109458	25.233487226209	8
0	109514	25.233522531698	7
0	109562	25.233557837187	6
0	109611	25.233593142676	5
0	109660	25.233628448165	4
0	109709	25.233663753654	3
0	109758	25.233699059143	2
0	109807	25.233734364632	1
0	109856	25.233769670121	0
0	111870	25.604909709117	1
0	111871	25.604963529572	0
0	111888	25.604995468287	1
0	111902	25.604997129572	0
0	114668	26.501524538447	1
0	115008	26.504480893809	2
0	115691	26.573774921549	1
0	115700	26.573808521549	0
0	115742	26.573840559825	1
0	115744	26.57384057582	0
0	120083	27.68196175917	1
0	120084	27.68196175917	2
0	120085	27.68196175917	3
0	120086	27.68196175917	4
0	120087	27.68196175917	5
0	120088	27.68196175917	6
0	120089	27.68196175917	7
0	120090	27.68196175917	8
0	120091	27.68196175917	9
0	120092	27.68196175917	10
0	120093	27.68196175917	11
0	120116	27.681997013441	10
0	120149	27.682032267712	9
0	120204	27.682067521983	8
0	120275	27.682102776254	7
0	120347	27.682138030525	6
0	120419	27.682173284796	5
0	120466	27.682208539067	4
0	120486	27.682243793338	3
0	120506	27.682279047609	2
0	120526	27.68231430188	1
0	120546	27.682349556151	0
0	134155	31.530851146154	1
0	134216	31.531699357132	2
0	134390	31.62830651322	1
0	134405	31.628341818709	0
0	136397	31.904931623126	1
0	136418	31.905355642264	2
0	136440	31.905779661402	3
0	136462	31.90620368054	4
0	136484	31.906627699678	5
0	136506	31.907051718816	6
0	136573	31.90793186681	7
1	0	0	0
1	0	0	0
1	0	0	4
2	0	0	0
2	35258	8.866144814396	1
2	35259	8.866144814396	2
2	35260	8.866144814396	3
2	35261	8.866144814396	4
2	35262	8.866144814396	5
2	35263	8.866144814396	6
2	35264	8.866144814396	7
2	35265	8.866144814396	8
2	35266	8.866144814396	9
2	35267	8.866144814396	10
2	35268	8.866144814396	11
2	35269	8.866144814396	12
2	35270	8.866144814396	13
2	35271	8.866144814396	14
2	35289	8.866568931993	13
2	35323	8.86699304959	12
2	35383	8.867417167187	11
2	35430	8.867841284784	10
2	35472	8.868265402381	9
2	35514	8.868689519978	8
2	35556	8.869113637575	7
2	35598	8.869537755172	6
2	35640	8.869961872769	5
2	35692	8.870385990366	4
2	35734	8.870810107963	3
2	35776	8.87123422556	2
2	35818	8.871658343157	1
2	35861	8.872082460754	0
2	53485	13.401439953047	1
2	53486	13.401439953047	2
2	53487	13.401439953047	3
2	53488	13.401439953047	4
2	53489	13.401439953047	5
2	53490	13.401439953047	6
2	53491	13.401439953047	7
2	53492	13.401439953047	8
2	53523	13.401864070644	7
2	53603	13.402288188241	6
2	53623	13.402712305838	5
2	53668	13.403136423435	4
2	53688	13.403560541032	3
2	53740	13.403984658629	2
2	53760	13.404408776226	1
2	53838	13.404832893823	0
2	57038	14.001516055812	1
2	57074	14.001551375975	2
2	57608	14.101092055812	1
2	57620	14.101516173409	0
2	57639	14.101539528532	1
2	57640	14.101544973409	0
2	85485	18.500024073123	1
2	85656	18.6	0
2	85770	18.600144762762	1
2	86223	18.607804028252	2
2	86552	18.7	1
2	86574	18.700032	0
2	89174	19.106954780169	1
2	89354	19.200089731242	0
2	130861	30.903408720966	1
2	130862	30.903408720966	2
2	130863	30.903408720966	3
2	130864	30.903408720966	4
2	130865	30.903408720966	5
2	130866	30.903408720966	6
2	130867	30.903408720966	7
2	130868	30.903408720966	8
2	130886	30.903832838563	7
2	130920	30.90425695616	6
2	131003	30.904681073757	5
2	131119	30.905105191354	4
2	131179	30.905529308951	3
2	131229	30.905953426548	2
2	131250	30.906377544145	1
2	131271	30.906801661742	0
3	0	0	0
3	0	0	0
3	0	0	4
4	0	0	0
4	5015	0.835176997001	1
4	5442	0.922338389956	0
4	14753	2.803820831753	1
4	14754	2.803833731969	0
4	24961	6.506154830841	1
4	24962	6.506154830841	2
4	24963	6.506154830841	3
4	24964	6.506154830841	4
4	24965	6.506154830841	5
4	24966	6.506154830841	6
4	24967	6.506154830841	7
4	24968	6.506154830841	8
4	25036	6.506190135536	7
4	25085	6.506225440231	6
4	25112	6.506260744926	5
4	25132	6.506296049621	4
4	25152	6.506331354316	3
4	25172	6.506366659011	2
4	25192	6.506401963706	1
4	25212	6.506437268401	0
4	73688	16.83529330008	1
4	73712	16.835296466118	0
4	73739	16.835325368073	1
4	73763	16.83532850016	0
4	74988	17.038616785148	1
4	75056	17.1	0
4	79453	17.820459789674	1
4	79636	17.820940151025	2
4	79724	17.822032009397	3
4	80283	17.826132211121	4
4	80675	17.837256286199	3
4	80687	17.837280286199	2
4	80769	17.837402237402	3
4	81445	17.92123324424	4
4	81712	17.937280286199	3
4	81724	17.937304286199	2
4	81771	17.937328286199	1
4	81822	17.937328497514	2
4	81842	17.937360286199	1
4	81887	17.937392309077	0
4	96445	20.443056637108	1
4	96449	20.443353006865	0
4	96465	20.443353052155	1
4	96487	20.443386606865	0
4	96543	20.443418816255	1
4	96552	20.443810626003	0
4	97723	20.500448064428	1
4	98269	20.6	0
4	110940	25.404571449149	1
4	110941	25.404571449149	2
4	110942	25.404571449149	3
4	110943	25.404571449149	4
4	110944	25.404571449149	5
4	110945	25.404571449149	6
4	110946	25.404571449149	7
4	110947	25.404571449149	8
4	111133	25.5	9
4	111386	25.504571449149	8
4	111525	25.509087197373	9
4	111860	25.604571449149	8
4	111882	25.604995468287	7
4	111934	25.605419487425	6
4	112000	25.605843506563	5
4	112042	25.606267525701	4
4	112084	25.606691544839	3
4	112126	25.607115563977	2
4	112168	25.607539583115	1
4	112210	25.607963602253	0
4	136153	31.903235546574	1
4	136154	31.903235546574	2
4	136155	31.903235546574	3
4	136156	31.903235546574	4
4	136157	31.903235546574	5
4	136158	31.903235546574	6
4	136159	31.903235546574	7
4	136160	31.903235546574	8
4	136178	31.903659565712	7
4	136284	31.90408358485	6
4	136339	31.904507603988	5
4	136373	31.904524625724	6
4	136391	31.904931623126	5
4	136412	31.905355642264	4
4	136434	31.905779661402	3
4	136456	31.90620368054	2
4	136478	31.906627699678	1
4	136500	31.907051718816	0
5	0	0	0
5	0	0	0
5	0	0	4
6	0	0	0
6	1243	0.502386475785	1
6	1258	0.50272603076	0
6	4640	0.826021818281	1
6	4665	0.826053942952	0
6	5468	0.924605608059	1
6	5639	1	2
6	5723	1.000424021693	3
6	5900	1.004227909839	4
6	5942	1.02116450657	3
6	5973	1.021196528263	2
6	6029	1.021620652934	1
6	6074	1.022044777605	0
6	11911	2.320973158898	1
6	11912	2.320992461749	0
6	25489	6.515982842697	1
6	25598	6.6	0
6	35093	8.825265815447	1
6	35175	8.861928889026	2
6	36021	8.924841716505	1
6	36041	8.925265841176	0
6	40438	9.376094668437	1
6	40439	9.376094668437	2
6	40440	9.376094668437	3
6	40441	9.376094668437	4
6	40442	9.376094668437	5
6	40443	9.376094668437	6
6	40444	9.376094668437	7
6	40445	9.376094668437	8
6	40446	9.376094668437	9
6	40447	9.376094668437	10
6	40448	9.376094668437	11
6	40449	9.376094668437	12
6	40450	9.376094668437	13
6	40451	9.376094668437	14
6	40452	9.376094668437	15
6	40453	9.376094668437	16
6	40454	9.376094668437	17
6	40455	9.376094668437	18
6	40456	9.376094668437	19
6	40457	9.376094668437	20
6	40458	9.376094668437	21
6	40459	9.376094668437	22
6	40460	9.376094668437	23
6	40461	9.376094668437	24
6	40462	9.376094668437	25
6	40463	9.376094668437	26
6	40464	9.376094668437	27
6	40465	9.376094668437	28
6	40466	9.376094668437	29
6	40467	9.376094668437	30
6	40468	9.376094668437	31
6	40469	9.376094668437	32
6	40470	9.376094668437	33
6	40496	9.376518793108	32
6	40542	9.376942917779	31
6	40848	9.476942917779	30
6	40868	9.47736704245	29
6	40919	9.477791167121	28
6	40996	9.477878572243	29
6	41212	9.503620838181	30
6	41287	9.508939594053	31
6	41365	9.577791167121	30
6	41721	9.677791167121	29
6	41753	9.678215291792	28
6	41803	9.678639416463	27
6	41898	9.679063541134	26
6	41921	9.679487665805	25
6	41944	9.679911790476	24
6	41977	9.680335915147	23
6	42000	9.680760039818	22
6	42033	9.681184164489	21
6	42104	9.68160828916	20
6	42127	9.682032413831	19
6	42150	9.682456538502	18
6	42173	9.682880663173	17
6	42196	9.683304787844	16
6	42219	9.683728912515	15
6	42242	9.684153037186	14
6	42266	9.684577161857	13
6	42289	9.685001286528	12
6	42312	9.685425411199	11
6	42335	9.68584953587	10
6	42384	9.686273660541	9
6	42407	9.686697785212	8
6	42430	9.687121909883	7
6	42453	9.687546034554	6
6	42476	9.687970159225	5
6	42501	9.688394283896	4
6	42526	9.688818408567	3
6	42550	9.689242533238	2
6	42563	9.689280933238	1
6	42595	9.689314533238	0
6	51344	12.824520233446	1
6	51345	12.824526768504	0
6	56402	13.90446431123	1
6	56766	14	2
6	56906	14.001058335649	1
6	56916	14.001091935649	0
6	56986	14.001097756162	1
6	56992	14.001123979035	2
6	56993	14.001123979035	3
6	56994	14.001123979035	4
6	56995	14.001123979035	5
6	56996	14.001123979035	6
6	56997	14.001123979035	7
6	56998	14.001123979035	8
6	56999	14.001123979035	9
6	57000	14.001123979035	10
6	57034	14.001516055812	9
6	57050	14.001551255812	8
6	57086	14.001975277505	7
6	57109	14.002399299198	6
6	57132	14.002823320891	5
6	57155	14.003247342584	4
6	57209	14.003671364277	3
6	57232	14.00409538597	2
6	57255	14.004519407663	1
6	57278	14.004943429356	0
6	67491	16.005215124908	1
6	67586	16.1	0
6	74234	16.935392735003	1
6	74323	16.935816833945	0
6	74808	17.035487233945	1
6	74902	17.035552932887	2
6	74939	17.037433133382	3
6	75057	17.1	2
6	75166	17.100035320163	1
6	75207	17.100067320163	0
6	82067	17.941373906143	1
6	82184	18	2
6	82365	18.00230243874	3
6	82489	18.004307781039	4
6	82801	18.037328309069	3
6	82823	18.03736037825	2
6	82851	18.037784425296	1
6	82879	18.037818025296	0
6	111236	25.500424021693	1
6	111627	25.6	0
6	111650	25.600214620967	1
6	111657	25.600424117238	0
6	128891	30.000424021693	1
6	129058	30.1	0
6	135903	31.900367526066	1
6	135904	31.900367526066	2
6	135905	31.900367526066	3
6	135906	31.900367526066	4
6	135907	31.900367526066	5
6	135908	31.900367526066	6
6	135909	31.900367526066	7
6	135934	31.900791650737	6
6	136003	31.901215775408	5
6	136246	31.903788860417	6
7	0	0	0
7	0	0	0
7	0	0	4
8	0	0	0
8	1535	0.503863726197	1
8	1676	0.5044925457	2
8	1950	0.505457743879	3
8	2109	0.506329124927	4
8	2316	0.508575825714	5
8	2641	0.60272603076	4
8	2661	0.603150132169	3
8	2692	0.603174132169	2
8	2745	0.603207732169	1
8	2781	0.603231732169	0
8	5714	1.000424018774	1
8	5815	1.003323538232	2
8	5816	1.003323538232	3
8	5817	1.003323538232	4
8	5818	1.003323538232	5
8	5819	1.003323538232	6
8	6273	1.1	5
8	6304	1.100424101409	4
8	6334	1.100456221883	3
8	6362	1.100488342357	2
8	6390	1.100523662831	1
8	6426	1.100555783305	0
8	23838	6.411149694745	1
8	23839	6.411149694745	2
8	23840	6.411149694745	3
8	23841	6.411149694745	4
8	23842	6.411149694745	5
8	23843	6.411149694745	6
8	23844	6.411149694745	7
8	23845	6.411149694745	8
8	23884	6.411573815219	7
8	23940	6.411997935693	6
8	24015	6.412422056167	5
8	24096	6.412846176641	4
8	24131	6.413270297115	3
8	24161	6.413694417589	2
8	24191	6.414118538063	1
8	24221	6.414542658537	0
8	35023	8.824417617563	1
8	35049	8.824841716505	0
8	35397	8.867417172941	1
8	35443	8.867841293415	2
8	35485	8.868265413889	3
8	35527	8.868689534363	4
8	35569	8.869113654837	5
8	35611	8.869537775311	6
8	35654	8.869961895785	7
8	35706	8.870386016259	8
8	35748	8.870810136733	9
8	35790	8.871234257207	10
8	35832	8.871658377681	11
8	35875	8.872082498155	12
8	35915	8.872506618629	13
8	35939	8.872930739103	14
8	36156	8.926231854965	15
8	36366	8.966993052467	14
8	36384	8.967417151409	13
8	36411	8.967841250351	12
8	36438	8.968265349293	11
8	36460	8.968273750382	12
8	36467	8.968689448235	11
8	36494	8.969113547177	10
8	36521	8.969537646119	9
8	36548	8.969961745061	8
8	36585	8.970385844003	7
8	36612	8.970809942945	6
8	36639	8.971234041887	5
8	36666	8.971658140829	4
8	36693	8.972082239771	3
8	36720	8.972506338713	2
8	36747	8.972930437655	1
8	36768	8.972959237655	0
8	38907	9.363991965914	1
8	38930	9.364011699664	0
8	63863	15.31672712624	1
8	63997	15.416303107466	0
8	67371	16.000424018774	1
8	67489	16.003469770777	2
8	67587	16.1	1
8	67646	16.100424101409	0
8	69085	16.365062192757	1
8	69086	16.365062192757	2
8	69087	16.365062192757	3
8	69088	16.365062192757	4
8	69089	16.365062192757	5
8	69090	16.365062192757	6
8	69091	16.365062192757	7
8	69092	16.365062192757	8
8	69093	16.365062192757	9
8	69094	16.365062192757	10
8	69095	16.365062192757	11
8	69096	16.365062192757	12
8	69121	16.365486294166	11
8	69176	16.365910395575	10
8	69249	16.366334496984	9
8	69322	16.366758598393	8
8	69417	16.367182699802	7
8	69512	16.367606801211	6
8	69585	16.36803090262	5
8	69658	16.368455004029	4
8	69731	16.368879105438	3
8	69804	16.369303206847	2
8	69877	16.369727308256	1
8	70000	16.370151409665	0
8	70792	16.500424080691	1
8	70935	16.502058090011	2
8	70969	16.503859971717	3
8	71112	16.504740271084	4
8	71228	16.6	3
8	71251	16.600108443616	4
8	71260	16.600424101409	3
8	71299	16.600456200351	2
8	71323	16.600488219125	1
8	71381	16.600912320534	0
8	73017	16.735261255102	1
8	73040	16.735293346121	2
8	73063	16.735325437135	3
8	73084	16.735360728144	4
8	73173	16.74118872075	5
8	73392	16.823014754533	6
8	73464	16.824950862887	7
8	73613	16.826254959076	8
8	73629	16.835225964078	7
8	73645	16.835261232082	6
8	73684	16.83529330008	5
8	73735	16.835325368073	4
8	73797	16.835360636061	3
8	73863	16.839684968895	4
8	74010	16.841374627105	5
8	74206	16.935360636061	4
8	74228	16.935392735003	3
8	74260	16.935416735003	2
8	74367	16.936874503463	3
8	74369	16.937262311995	4
8	74698	17.035416735003	3
8	74722	17.035451935003	2
8	74804	17.035487233945	1
8	74824	17.035520833945	0
8	78977	17.737288360164	1
8	78978	17.737288360164	2
8	78979	17.737288360164	3
8	79041	17.737712440855	2
8	79088	17.738136521546	1
8	79125	17.738560602237	0
8	95828	20.419642280395	1
8	95919	20.419733517943	2
8	96025	20.420760470969	3
8	97782	20.501321663802	4
8	97836	20.519642280395	3
8	97860	20.520066299169	2
8	97886	20.520083521594	3
8	97887	20.520095099169	2
8	97927	20.52012717986	1
8	97964	20.52016077986	0
8	107313	24.90094266317	1
8	107314	24.90094266317	2
8	107315	24.90094266317	3
8	107316	24.90094266317	4
8	107317	24.90094266317	5
8	107318	24.90094266317	6
8	107319	24.90094266317	7
8	107320	24.90094266317	8
8	107321	24.90094266317	9
8	107322	24.90094266317	10
8	107323	24.90094266317	11
8	107324	24.90094266317	12
8	107325	24.90094266317	13
8	107326	24.90094266317	14
8	107327	24.90094266317	15
8	107328	24.90094266317	16
8	107329	24.90094266317	17
8	107330	24.90094266317	18
8	107357	24.901366764579	17
8	107448	24.901790865988	16
8	107519	24.902214967397	15
8	107575	24.902639068806	14
8	107631	24.903063170215	13
8	107687	24.903487271624	12
8	107765	24.903911373033	11
8	107821	24.904335474442	10
8	107899	24.904759575851	9
8	107955	24.90518367726	8
8	108033	24.905607778669	7
8	108089	24.906031880078	6
8	108145	24.906455981487	5
8	108199	24.906880082896	4
8	108274	24.907304184305	3
8	108330	24.907728285714	2
8	108386	24.908152387123	1
8	108442	24.908576488532	0
8	108819	25.000424026397	1
8	108837	25.000424101409	0
8	117277	27	1
8	117352	27.000424098942	2
8	117398	27.021900967221	1
8	117505	27.022324985995	0
8	131607	31.001876073593	1
8	131678	31.005105199985	2
8	131700	31.005529320459	3
8	131750	31.005953440933	4
8	131772	31.006377561407	5
8	131794	31.006801681881	6
8	131816	31.007225802355	7
8	131838	31.007649922829	8
8	131860	31.008074043303	9
8	132021	31.1	8
8	132058	31.100032018774	7
8	132138	31.10347973431	8
8	132255	31.200032018774	7
8	132301	31.200456120183	6
8	132328	31.200880221592	5
8	132355	31.201304323001	4
8	132382	31.20172842441	3
8	132444	31.202152525819	2
8	132471	31.202576627228	1
8	132498	31.203000728637	0
8	135166	31.826805894865	1
8	135177	31.826815061175	0
9	0	0	0
9	0	0	0
9	0	0	4
10	0	0	0
10	3798	0.611901486851	1
10	3933	0.70317421286	0
10	5641	1	1
10	5936	1.021164468482	0
10	25267	6.507091089418	1
10	25675	6.602859231209	2
10	25717	6.606188543945	1
10	25749	6.606220668616	0
10	30710	7.50042407915	1
10	30804	7.501498782111	2
10	30891	7.502378836892	3
10	31058	7.6	2
10	31091	7.600424113104	1
10	31131	7.600456193795	0
10	31193	7.600971711098	1
10	31326	7.700456193795	0
10	34007	8.50042407915	1
10	34149	8.6	0
10	37129	9.003511806381	1
10	37429	9.1	0
10	41503	9.579957998048	1
10	41534	9.6	0
10	56958	14.00109206032	1
10	57424	14.1	0
10	76180	17.258806878801	1
10	76231	17.258838921665	0
10	77525	17.504317454918	1
10	78095	17.6	0
10	79093	17.738136521546	1
10	79129	17.738560602237	2
10	79184	17.738984682928	3
10	79689	17.821340207417	4
10	79952	17.823568046745	5
10	80107	17.824950848135	6
10	80649	17.832305246446	7
10	80771	17.837712440855	6
10	80784	17.837718478716	7
10	80795	17.838136553389	6
10	80826	17.838560665988	5
10	80858	17.838984778653	4
10	80890	17.839408891383	3
10	80922	17.839833004179	2
10	80944	17.839857004179	1
10	80997	17.839881121364	2
10	81929	17.939857004179	1
10	81941	17.939889004179	0
10	88854	19.102166087281	1
10	88979	19.10390377763	2
10	89331	19.200056087561	1
10	89349	19.200089687561	0
10	91082	19.424394952464	1
10	91084	19.424950433925	0
10	92312	19.80390708726	1
10	92357	19.80394236641	2
10	92492	19.804221174809	3
10	92520	19.80433116641	2
10	92570	19.80475524556	1
10	92596	19.80478404556	0
10	97933	20.52012717986	1
10	98028	20.520551260551	0
10	116574	26.823948848079	1
10	116678	26.824111611681	2
10	116760	26.82503272357	3
10	116995	26.92186895588	2
10	117044	26.92190255588	1
10	117118	26.924443920426	2
10	117278	27	3
10	117410	27.02190255588	2
10	117437	27.021934636571	1
10	117479	27.021973036571	0
10	117822	27.103178996644	1
10	117921	27.121973036571	0
11	0	0	0
11	0	0	0
11	0	0	4
12	0	0	0
12	1935	0.505421096122	1
12	2922	0.604851979413	0
12	7114	1.125471842147	1
12	7115	1.125471842147	2
12	7116	1.125471842147	3
12	7117	1.125471842147	4
12	7118	1.125471842147	5
12	7119	1.125471842147	6
12	7138	1.125895896418	5
12	7165	1.126319950689	4
12	7210	1.12674400496	3
12	7257	1.127168059231	2
12	7284	1.127592113502	1
12	7314	1.128016167773	0
12	8594	1.45376557092	1
12	8597	1.453765582242	0
12	27595	7.000424064428	1
12	28031	7.1	0
12	37253	9.004720848027	1
12	37430	9.1	0
12	39099	9.364525956851	1
12	39100	9.364525956851	2
12	39101	9.364525956851	3
12	39102	9.364525956851	4
12	39103	9.364525956851	5
12	39104	9.364525956851	6
12	39105	9.364525956851	7
12	39106	9.364525956851	8
12	39107	9.364525956851	9
12	39108	9.364525956851	10
12	39109	9.364525956851	11
12	39219	9.364950011122	10
12	39288	9.365374065393	9
12	39368	9.365798119664	8
12	39448	9.366222173935	7
12	39550	9.366646228206	6
12	39618	9.367070282477	5
12	39688	9.367176350673	6
12	39723	9.367494336748	5
12	39799	9.367918391019	4
12	39901	9.36834244529	3
12	39981	9.368766499561	2
12	40029	9.369190553832	1
12	40111	9.369614608103	0
12	41130	9.5	1
12	41384	9.577826280347	0
12	41405	9.578215221147	1
12	41450	9.57863928674	2
12	41518	9.581276405448	3
12	41731	9.677826280347	2
12	41768	9.678250334618	1
12	41818	9.678674388889	0
12	58269	14.402095440471	1
12	58270	14.402095440471	2
12	58271	14.402095440471	3
12	58272	14.402095440471	4
12	58273	14.402095440471	5
12	58274	14.402095440471	6
12	58275	14.402095440471	7
12	58276	14.402095440471	8
12	58297	14.402519504899	7
12	58369	14.402943569327	6
12	58446	14.403367633755	5
12	58491	14.403791698183	4
12	58536	14.404215762611	3
12	58581	14.404639827039	2
12	58678	14.405063891467	1
12	58751	14.405487955895	0
12	60051	14.702159147348	1
12	60054	14.70215915867	0
12	60105	14.702194401619	1
12	60112	14.702194424263	0
12	60185	14.70222965589	1
12	60199	14.702229689856	0
12	60282	14.702264910161	1
12	60288	14.702264955449	0
12	60379	14.702300164432	1
12	60451	14.702335418703	2
12	60489	14.702370672974	3
12	60509	14.702405927245	4
12	60527	14.702441181516	5
12	60589	14.726313602508	6
12	60679	14.802264955449	5
12	60697	14.802300221042	4
12	60736	14.802335486635	3
12	60806	14.802370752228	2
12	60878	14.802406017821	1
12	60958	14.802441283414	0
12	74494	17	1
12	74708	17.035416850518	0
12	74937	17.036728720647	1
12	75605	17.135416850518	0
12	82443	18.00343665841	1
12	82491	18.004573633864	2
12	83025	18.1	1
12	83048	18.1000336	0
12	96325	20.442080858871	1
12	96326	20.442080858871	2
12	96347	20.442504923299	1
12	96391	20.442928987727	0
12	97584	20.5	1
12	97640	20.500024	0
12	110400	25.400586102358	1
12	110401	25.400586102358	2
12	110402	25.400586102358	3
12	110403	25.400586102358	4
12	110404	25.400586102358	5
12	110405	25.400586102358	6
12	110406	25.400586102358	7
12	110407	25.400586102358	8
12	110426	25.401010156629	7
12	110475	25.4014342109	6
12	110523	25.401858265171	5
12	110571	25.402282319442	4
12	110619	25.402706373713	3
12	110667	25.403130427984	2
12	110753	25.403554482255	1
12	110801	25.403978536526	0
12	111137	25.5	1
12	111367	25.500883465249	2
12	111374	25.504539475301	1
12	111397	25.504963529572	0
12	117343	27.000424064428	1
12	117719	27.1	0
12	120154	27.682032267712	1
12	120157	27.682032279034	0
12	120208	27.682067521983	1
12	120215	27.682067544627	0
12	120279	27.682102776254	1
12	120286	27.68210281022	0
12	120351	27.682138030525	1
12	120357	27.682138075813	0
12	120423	27.682173284796	1
12	120470	27.682208539067	2
12	120490	27.682243793338	3
12	120510	27.682279047609	4
12	120530	27.68231430188	5
12	120550	27.682349556151	6
12	120568	27.682384810422	7
12	120691	27.782138075813	6
12	120709	27.782173341406	5
12	120748	27.782208606999	4
12	120802	27.782243872592	3
12	120856	27.782279138185	2
12	120911	27.782314403778	1
12	120966	27.782349669371	0
13	0	0	0
13	0	0	0
13	0	0	4
14	0	0	0
14	3615	0.610048920563	1
14	3626	0.610071511768	0
14	5269	0.921164471994	1
14	5270	0.921164471994	2
14	5271	0.921164471994	3
14	5435	0.922044626753	4
14	5643	1	5
14	5939	1.021164471994	4
14	6013	1.021588581586	5
14	6055	1.022019019925	6
14	6068	1.022044766038	7
14	6117	1.022468890709	8
14	6153	1.02289301538	9
14	6308	1.100424101409	10
14	6623	1.101822826444	11
14	6662	1.121164471994	10
14	6678	1.121196554656	9
14	6707	1.121228637318	8
14	6734	1.121652702911	7
14	6762	1.122076768504	6
14	6790	1.122500834097	5
14	6816	1.122536034097	4
14	6857	1.12296009969	3
14	6885	1.123384165283	2
14	6913	1.123808230876	1
14	6941	1.124232296469	0
14	8643	1.453800847835	1
14	8645	1.453800864904	0
14	22759	6.402281640814	1
14	22765	6.402281663641	0
14	22860	6.402705723476	1
14	22872	6.40270576913	0
14	22915	6.403129806138	1
14	22929	6.403129874619	0
14	23060	6.4035538888	1
14	23076	6.403553980108	0
14	23184	6.403977971462	1
14	23204	6.403978085597	0
14	23286	6.404402054124	1
14	23307	6.404402191086	0
14	23345	6.404465421914	1
14	23369	6.404826136786	2
14	23392	6.404826296575	1
14	23438	6.405250219448	2
14	23794	6.409232607428	3
14	24419	6.5	4
14	24614	6.501721149563	5
14	24755	6.504826296575	4
14	24768	6.505000948807	5
14	24779	6.505250402064	4
14	24853	6.505674507553	3
14	24892	6.505706620657	2
14	24928	6.506130726146	1
14	24956	6.506154830841	0
14	25090	6.506225440231	1
14	25116	6.506260744926	2
14	25136	6.506296049621	3
14	25156	6.506331354316	4
14	25176	6.506366659011	5
14	25196	6.506401963706	6
14	25216	6.506437268401	7
14	25234	6.506472573096	8
14	25262	6.506824772183	9
14	25269	6.507413192131	10
14	25381	6.512846036812	11
14	25417	6.513270119474	12
14	25454	6.515617953118	13
14	25729	6.606190135536	12
14	25866	6.607214464344	13
14	26190	6.706190135536	12
14	26206	6.706225418198	11
14	26237	6.70626070086	10
14	26268	6.706295983522	9
14	26299	6.706331266184	8
14	26330	6.706366548846	7
14	26361	6.706401831508	6
14	26392	6.70643711417	5
14	26429	6.706469219659	4
14	26457	6.706504419659	3
14	26514	6.706928525148	2
14	26544	6.707352630637	1
14	26581	6.707384736126	0
14	27651	7.001079486549	1
14	27733	7.001610278064	2
14	28032	7.1	1
14	28071	7.100032101409	0
14	28105	7.100046200351	1
14	28335	7.200032101409	0
14	41018	9.478215280225	1
14	41131	9.5	2
14	41362	9.577791155554	1
14	41401	9.578215221147	0
14	51771	12.827444170089	1
14	52137	12.925219866456	0
14	52674	13.000424101409	1
14	52792	13.1	0
14	56043	13.901938549059	1
14	56049	13.901938571886	0
14	56094	13.902362631721	1
14	56106	13.902362677375	0
14	56162	13.902786714383	1
14	56176	13.902786782864	0
14	56230	13.903210797045	1
14	56246	13.903210888353	0
14	56284	13.903634879707	1
14	56304	13.903634993842	0
14	56356	13.904058962369	1
14	56377	13.904059099331	0
14	56413	13.904483045031	1
14	56436	13.90448320482	0
14	56466	13.904907127693	1
14	56483	13.904907310309	0
14	56857	14.000424082662	1
14	57201	14.003426834539	2
14	57425	14.1	1
14	57553	14.100424105489	0
14	60116	14.702194424263	1
14	60122	14.702194460079	0
14	60203	14.702229689856	1
14	60218	14.702229761488	0
14	60292	14.702264955449	1
14	60321	14.702265062897	0
14	60741	14.802335486635	1
14	60745	14.802335522451	0
14	60810	14.802370752228	1
14	60823	14.80237082386	0
14	60882	14.802406017821	1
14	60906	14.802406125269	0
14	60962	14.802441283414	1
14	60986	14.802441426678	0
14	61459	14.824819766776	1
14	61478	14.824982438044	0
14	66775	15.836908473805	1
14	66922	15.935627750361	0
14	81459	17.921233311962	1
14	81493	17.921265400241	0
14	97785	20.50281673269	1
14	98270	20.6	0
14	104282	23.403411995801	1
14	104283	23.403411995801	2
14	104284	23.403411995801	3
14	104285	23.403411995801	4
14	104286	23.403411995801	5
14	104287	23.403411995801	6
14	104288	23.403411995801	7
14	104313	23.40383610129	6
14	104364	23.404260206779	5
14	104415	23.404684312268	4
14	104445	23.405108417757	3
14	104522	23.405532523246	2
14	104573	23.405956628735	1
14	104624	23.406380734224	0
14	107453	24.901790865988	1
14	107458	24.901790870068	0
14	107523	24.902214967397	1
14	107531	24.902214975557	0
14	107579	24.902639068806	1
14	107587	24.902639081046	0
14	107635	24.903063170215	1
14	107643	24.903063186535	0
14	107691	24.903487271624	1
14	107702	24.903487292024	0
14	107769	24.903911373033	1
14	107781	24.903911397513	0
14	107825	24.904335474442	1
14	107837	24.904335503002	0
14	107903	24.904759575851	1
14	107915	24.904759608491	0
14	107959	24.90518367726	1
14	107972	24.90518371398	0
14	108037	24.905607778669	1
14	108050	24.905607819469	0
14	108093	24.906031880078	1
14	108106	24.906031924958	0
14	108149	24.906455981487	1
14	108162	24.906456030447	0
14	108203	24.906880082896	1
14	108218	24.906880135936	0
14	108278	24.907304184305	1
14	108294	24.907304241425	0
14	108334	24.907728285714	1
14	108350	24.907728346914	0
14	108390	24.908152387123	1
14	108406	24.908152452403	0
14	108446	24.908576488532	1
14	108462	24.908576557892	0
14	108500	24.909000589941	1
14	108514	24.909000663381	0
14	108841	25.000424101409	1
14	108843	25.000424104194	0
14	108942	25.000848202818	1
14	108945	25.000848208394	0
14	111248	25.500424082662	1
14	111256	25.500424105489	0
14	113319	26.000424065593	1
14	113497	26.1	0
14	120219	27.682067544627	1
14	120229	27.682067592138	0
14	120290	27.68210281022	1
14	120307	27.682102905242	0
14	120361	27.682138075813	1
14	120383	27.682138218346	0
14	120753	27.782208606999	1
14	120761	27.78220865451	0
14	120806	27.782243872592	1
14	120821	27.782243967614	0
14	120860	27.782279138185	1
14	120877	27.782279280718	0
14	120915	27.782314403778	1
14	120935	27.782314593822	0
14	120970	27.782349669371	1
14	120993	27.782349906926	0
14	121023	27.782384934964	1
14	121040	27.78238522003	0
14	131617	31.001876137481	1
14	132022	31.1	0
14	132135	31.100994556692	1
14	132232	31.2	0
14	133382	31.524913669308	1
14	133383	31.524913669308	2
14	133384	31.524913669308	3
14	133385	31.524913669308	4
14	133386	31.524913669308	5
14	133387	31.524913669308	6
14	133388	31.524913669308	7
14	133389	31.524913669308	8
14	133390	31.524913669308	9
14	133391	31.524913669308	10
14	133392	31.524913669308	11
14	133393	31.524913669308	12
14	133394	31.524913669308	13
14	133395	31.524913669308	14
14	133396	31.524913669308	15
14	133421	31.525337774797	14
14	133480	31.525761880286	13
14	133517	31.525797185775	14
14	133529	31.526185985775	13
14	133638	31.526610091264	12
14	133689	31.527034196753	11
14	133787	31.527458302242	10
14	133838	31.527882407731	9
14	133902	31.52830651322	8
14	133964	31.528730618709	7
14	134019	31.529154724198	6
14	134049	31.529578829687	5
14	134089	31.530002935176	4
14	134119	31.530427040665	3
14	134149	31.530851146154	2
14	134180	31.531275251643	1
14	134210	31.531699357132	0
14	135548	31.831895232694	1
14	135713	31.83542864672	2
14	136056	31.901639832837	3
14	136102	31.902063957508	4
14	136139	31.903203612993	5
14	136625	31.928679157119	4
14	136647	31.929103262608	3
15	0	0	0
15	0	0	0
15	0	0	4
16	0	0	0
16	2146	0.506860584359	1
16	3028	0.606170202396	0
16	4602	0.825997686177	1
16	4746	0.829194788144	2
16	5233	0.921140389332	1
16	5246	0.921164389332	0
16	5342	0.92119642688	1
16	5351	0.92119650657	0
16	12227	2.322799651758	1
16	12228	2.322832276446	0
16	17481	3.444520843727	1
16	17482	3.444532493652	0
16	22600	6.40143347549	1
16	22601	6.40143347549	2
16	22602	6.40143347549	3
16	22603	6.40143347549	4
16	22604	6.40143347549	5
16	22605	6.40143347549	6
16	22606	6.40143347549	7
16	22607	6.40143347549	8
16	22690	6.401857558152	7
16	22754	6.402281640814	6
16	22856	6.402705723476	5
16	22911	6.403129806138	4
16	23056	6.4035538888	3
16	23180	6.403977971462	2
16	23230	6.404024190054	3
16	23282	6.404402054124	2
16	23365	6.404826136786	1
16	23434	6.405250219448	0
16	24077	6.412846074624	1
16	24420	6.5	2
16	25000	6.506188513503	3
16	25349	6.51242195415	2
16	25377	6.512846036812	1
16	25413	6.513270119474	0
16	55953	13.901090383735	1
16	55954	13.901090383735	2
16	55955	13.901090383735	3
16	55956	13.901090383735	4
16	55957	13.901090383735	5
16	55958	13.901090383735	6
16	55959	13.901090383735	7
16	55960	13.901090383735	8
16	55996	13.901514466397	7
16	56038	13.901938549059	6
16	56090	13.902362631721	5
16	56158	13.902786714383	4
16	56226	13.903210797045	3
16	56280	13.903634879707	2
16	56352	13.904058962369	1
16	56409	13.904483045031	0
16	63794	15.315879088692	1
16	63820	15.316303107466	0
16	74941	17.03800973724	1
16	75059	17.1	0
16	89104	19.105171484247	1
16	89343	19.20008962177	0
16	89856	19.30385100811	1
16	89857	19.30385100811	2
16	89858	19.30385100811	3
16	89859	19.30385100811	4
16	90041	19.320503198623	5
16	90466	19.324926416887	6
16	90991	19.40385100811	5
16	91020	19.408810459756	6
16	91214	19.430173883031	7
16	91604	19.502414458116	8
16	91679	19.503769473328	9
16	91680	19.50385100811	8
16	91848	19.60385100811	7
16	92022	19.70385100811	6
16	92259	19.80385100811	5
16	92271	19.80387500811	4
16	92306	19.80390708726	3
16	92343	19.80394228726	2
16	92381	19.80397588726	1
16	92417	19.80400948726	0
16	95157	20.318338013635	1
16	95158	20.318338013635	2
16	95159	20.318338013635	3
16	95189	20.318762096297	2
16	95235	20.319186178959	1
16	95288	20.319474388298	2
16	95426	20.320503198623	3
16	95488	20.322777056708	4
16	95768	20.419186178959	3
16	95781	20.419593037569	4
16	95788	20.419610261621	3
16	95822	20.419642280395	2
16	95860	20.419666280395	1
16	95889	20.419698299169	0
16	116754	26.825032661653	1
16	116992	26.921868948447	0
16	117120	26.924824275349	1
16	117281	27	2
16	117413	27.02190263503	1
16	117458	27.02194103503	0
16	117509	27.022324985995	1
16	117556	27.022749004769	2
16	117570	27.023707307366	3
16	117804	27.103178966202	4
16	117909	27.12194103503	3
16	117952	27.122365117692	2
16	117978	27.122789200354	1
16	117998	27.122821200354	0
17	0	0	0
17	0	0	0
17	0	0	4
18	0	0	0
18	24100	6.412846176641	1
18	24135	6.413270297115	2
18	24165	6.413694417589	3
18	24195	6.414118538063	4
18	24225	6.414542658537	5
18	24253	6.414966779011	6
18	24421	6.5	7
18	25355	6.512422056167	6
18	25451	6.514402354686	7
18	25868	6.607801723479	8
18	25880	6.612422056167	7
18	25892	6.61284607786	6
18	25914	6.613270099553	5
18	25935	6.613694121246	4
18	25956	6.614118142939	3
18	25978	6.614542164632	2
18	25998	6.61486233759	3
18	26001	6.614966186325	2
18	26020	6.615007786325	1
18	26052	6.615039906799	0
18	35328	8.86699304959	1
18	35331	8.866993052467	0
18	35387	8.867417167187	1
18	35393	8.867417172941	0
18	35434	8.867841284784	1
18	35439	8.867841293415	0
18	35476	8.868265402381	1
18	35481	8.868265413889	0
18	35518	8.868689519978	1
18	35523	8.868689534363	0
18	35560	8.869113637575	1
18	35565	8.869113654837	0
18	35602	8.869537755172	1
18	35607	8.869537775311	0
18	35644	8.869961872769	1
18	35650	8.869961895785	0
18	35696	8.870385990366	1
18	35702	8.870386016259	0
18	35738	8.870810107963	1
18	35744	8.870810136733	0
18	35780	8.87123422556	1
18	35786	8.871234257207	0
18	35822	8.871658343157	1
18	35828	8.871658377681	0
18	35865	8.872082460754	1
18	35871	8.872082498155	0
18	35905	8.872506578351	1
18	35911	8.872506618629	0
18	74497	17	1
18	74570	17.000024	0
18	74918	17.035552954419	1
18	74935	17.036003768833	2
18	75103	17.100024	1
18	75186	17.100056	0
18	79554	17.820582610918	1
18	79600	17.820916126726	0
18	81323	17.92113875753	1
18	81340	17.92113884635	0
18	81650	17.925690322219	1
18	82160	18	2
18	82187	18	3
18	82493	18.004586195403	4
18	82520	18.02113884635	3
18	82546	18.021170966824	2
18	82575	18.021182295944	3
18	82576	18.021194966824	2
18	82621	18.021595087298	3
18	82631	18.021619000215	2
18	82654	18.021652600215	1
18	82698	18.021687800215	0
18	85473	18.50002401872	1
18	85474	18.50002401872	2
18	85661	18.6	1
18	85708	18.600032014579	0
18	86884	18.82063082664	1
18	86915	18.820662934506	0
18	87566	19.000267660894	1
18	87901	19.002960837852	2
18	88308	19.005723629071	3
18	88650	19.1	2
18	88676	19.100032013645	1
18	88713	19.100056013645	0
18	89819	19.303818966951	1
18	89820	19.303818966951	2
18	89821	19.303818966951	3
18	89850	19.30385100811	2
18	89894	19.303883049274	1
18	89921	19.303915090443	0
18	130925	30.90425695616	1
18	130928	30.904256959037	0
18	131007	30.904681073757	1
18	131013	30.904681079511	0
18	131123	30.905105191354	1
18	131183	30.905529308951	2
18	131233	30.905953426548	3
18	131254	30.906377544145	4
18	131275	30.906801661742	5
18	131294	30.907225779339	6
18	131462	31	7
18	131549	31.000424117597	8
18	131627	31.004681079511	7
18	131638	31.004691402669	8
18	131674	31.005105199985	7
18	131696	31.005529320459	6
18	131746	31.005953440933	5
18	131768	31.006377561407	4
18	131790	31.006801681881	3
18	131812	31.007225802355	2
18	131834	31.007649922829	1
18	131856	31.008074043303	0
18	135859	31.900335298417	1
19	0	0	0
19	0	0	0
19	0	0	4
20	0	0	1
20	554	0.50028361915	3
20	564	0.50031721915	1
20	605	0.500341327692	3
20	618	0.500365327692	1
20	652	0.500397436234	3
20	665	0.500821436234	1
20	784	0.501876660218	3
20	810	0.501910260218	1
20	822	0.501910274593	3
20	863	0.501934274593	2
20	887	0.501934391404	3
20	934	0.501958391404	1
20	938	0.501958405779	3
20	951	0.501990405779	1
20	1011	0.502085826975	3
20	1032	0.502109826975	1
20	1082	0.502134029793	3
20	1105	0.502166029793	1
20	1248	0.502705574003	3
20	1290	0.502739174003	1
20	1450	0.503796955481	3
20	1476	0.503830555481	1
20	1486	0.503830569856	3
20	1512	0.503862569856	2
20	1537	0.503863730277	1
20	1620	0.504275961128	3
20	1642	0.504309561128	1
20	1703	0.504492683602	3
20	1731	0.504516683602	1
20	1782	0.50454090981	3
20	1796	0.50457290981	1
20	1825	0.504818419309	3
20	1845	0.504852019309	1
20	1855	0.504852033684	3
20	1868	0.504884033684	1
20	1901	0.504997136018	3
20	1942	0.505421136018	1
20	2027	0.506146225223	3
20	2063	0.506170225223	1
20	2330	0.508847830472	3
20	2337	0.508881430472	1
20	2563	0.602174143442	3
20	2581	0.602198143442	1
20	2617	0.60222235442	3
20	2631	0.60264635442	1
20	2682	0.603150237658	3
20	2839	0.603574237658	1
20	2871	0.603655939067	3
20	2885	0.604079939067	1
20	2925	0.604852033684	3
20	2945	0.605276033684	1
20	2974	0.605568800112	3
20	2984	0.605607200112	1
20	3168	0.607531984336	3
20	3194	0.607565584336	1
20	3239	0.60761522112	3
20	3265	0.60764882112	1
20	3306	0.607904624813	3
20	3316	0.607938224813	1
20	3364	0.60830811272	3
20	3371	0.60834171272	1
20	3390	0.60892827009	3
20	3400	0.60896187009	1
20	3422	0.609319316158	3
20	3429	0.609352916158	1
20	3448	0.609611585509	3
20	3458	0.609645185509	1
20	3484	0.60967109686	3
20	3498	0.60970309686	1
20	3534	0.609738507838	3
20	3552	0.609773707838	1
20	3573	0.610005794957	3
20	3583	0.610039394957	1
20	3606	0.610039511768	3
20	3625	0.610071511768	1
20	3643	0.610071617257	3
20	3661	0.610103617257	1
20	3711	0.610142228235	3
20	3726	0.610177428235	1
20	3737	0.610795351704	3
20	3744	0.610828951704	1
20	3767	0.611867879236	3
20	3789	0.611901479236	1
20	3970	0.706891022343	3
20	3984	0.706923022343	1
20	4020	0.706958433321	3
20	4034	0.706993633321	1
20	4381	0.822280770818	3
20	4388	0.822314370818	1
20	4414	0.822314470379	3
20	4453	0.822338470379	2
20	4490	0.822362409094	1
20	4888	0.830523100942	3
20	4902	0.830947100942	1
20	4955	0.834024861302	3
20	4965	0.834058461302	1
20	4988	0.834058578113	3
20	5007	0.834090578113	1
20	5025	0.838809332864	3
20	5035	0.838841332864	1
20	5069	0.838876641406	3
20	5082	0.838911841406	1
20	5099	0.838911958217	3
20	5117	0.838947158217	1
20	5301	0.921164577483	3
20	5373	0.921196577483	1
20	5445	0.922338409094	3
20	5452	0.922372009094	1
20	5666	1.000000019138	3
20	5715	1.000424019138	2
20	5724	1.000424054271	1
20	5952	1.021164577483	3
20	5985	1.021196577483	1
20	6600	1.101790815122	3
20	6610	1.101822815122	1
20	6669	1.121164577483	3
20	6687	1.121196577483	1
20	6695	1.121196660145	3
20	6716	1.121228660145	1
20	6724	1.121228742807	3
20	6744	1.121652742807	1
20	6752	1.1216528084	3
20	6772	1.1220768084	1
20	6780	1.122076873993	3
20	6800	1.122500873993	1
20	6808	1.122500939586	3
20	6839	1.122536139586	2
20	6840	1.122536139586	3
20	6867	1.122960139586	1
20	6875	1.122960205179	3
20	6895	1.123384205179	1
20	6903	1.123384270772	3
20	6923	1.123808270772	1
20	6931	1.123808336365	3
20	6951	1.124232336365	1
20	6959	1.124232401958	3
20	6984	1.124264401958	1
20	7068	1.125406187876	3
20	7078	1.125439787876	1
20	7124	1.125471896418	3
20	7137	1.125895896418	1
20	7148	1.125895950689	3
20	7164	1.126319950689	1
20	7179	1.12632000496	3
20	7209	1.12674400496	1
20	7220	1.126744059231	3
20	7256	1.127168059231	1
20	7267	1.127168113502	3
20	7283	1.127592113502	1
20	7295	1.127592167773	3
20	7313	1.128016167773	1
20	7325	1.128016222044	3
20	7341	1.128440222044	1
20	7364	1.128479058021	3
20	7386	1.128512658021	1
20	7555	1.226355361667	3
20	7583	1.226390561667	1
20	7587	1.22639056472	3
20	7634	1.22642576472	1
20	7650	1.226425881531	3
20	7678	1.226461081531	1
20	7717	1.226616275853	3
20	7724	1.226649875853	1
20	7743	1.228617226558	3
20	7753	1.228650826558	1
20	7867	1.303171389404	3
20	7874	1.303204989404	1
20	7973	1.331252565337	3
20	7983	1.331286165337	1
20	8005	1.331399617884	3
20	8012	1.331433217884	1
20	8173	1.447484212787	3
20	8183	1.447517812787	1
20	8209	1.448324477154	3
20	8236	1.448358077154	1
20	8275	1.449703710323	3
20	8282	1.449737310323	1
20	8341	1.451299494139	3
20	8357	1.451331494139	1
20	8381	1.451643449899	3
20	8410	1.451677049899	1
20	8426	1.452448905098	3
20	8436	1.452482505098	1
20	8520	1.453663062378	3
20	8530	1.453695062378	1
20	8569	1.45373037092	3
20	8590	1.45376557092	1
20	8605	1.453765636513	3
20	8634	1.453800836513	2
20	8655	1.453800887731	1
20	8665	1.453800970393	3
20	8689	1.453836170393	1
20	8734	1.454856109435	3
20	8756	1.454889709435	1
20	8911	1.457772297218	3
20	8927	1.457804297218	1
20	8985	1.460499431016	3
20	9001	1.460531431016	1
20	9012	1.461085959553	3
20	9022	1.461117959553	1
20	9040	1.461222360139	3
20	9050	1.461254360139	1
20	9084	1.461289668681	3
20	9097	1.461324868681	1
20	9114	1.461324985492	3
20	9132	1.461360185492	1
20	9300	1.500000019138	3
20	9375	1.500424019138	2
20	9405	1.500424105489	1
20	9625	1.602343361481	3
20	9647	1.602378561481	1
20	9697	1.604391021614	3
20	9707	1.604423021614	1
20	10079	1.822314470379	3
20	10115	1.822338470379	2
20	10152	1.822362409094	1
20	10292	1.943024246728	3
20	10299	1.943057846728	1
20	10428	2.000000019138	3
20	10436	2.000424019138	1
20	10525	2.001589970137	3
20	10535	2.001623570137	1
20	10718	2.002950634404	3
20	10740	2.002984234404	1
20	10772	2.003453389797	3
20	10821	2.003486989797	1
20	10886	2.004402484955	3
20	10908	2.004436084955	1
20	11028	2.004721343358	3
20	11050	2.004754943358	1
20	11198	2.005949112252	3
20	11205	2.005982712252	1
20	11428	2.008647813695	3
20	11435	2.008681413695	1
20	12081	2.321989158029	3
20	12091	2.322022758029	1
20	12145	2.322601223419	3
20	12167	2.322634823419	1
20	12291	2.322932670154	3
20	12313	2.322966270154	1
20	12328	2.323138195477	3
20	12335	2.323171795477	1
20	12403	2.323547298048	3
20	12433	2.323580898048	1
20	12732	2.324953181806	3
20	12754	2.324986781806	1
20	12773	2.325033522465	3
20	12806	2.325067122465	1
20	12969	2.326480646994	3
20	13013	2.326514246994	1
20	13042	2.327064507928	3
20	13080	2.327098107928	1
20	13095	2.327126241518	3
20	13102	2.327159841518	1
20	13125	2.327330146199	3
20	13147	2.327363746199	1
20	13162	2.327398586809	3
20	13169	2.327432186809	1
20	13539	2.33150680307	3
20	13546	2.33154040307	1
20	13602	2.332190845636	3
20	13609	2.332224445636	1
20	13887	2.500000019138	3
20	13894	2.500424019138	1
20	14222	2.801440060508	3
20	14257	2.801473660508	1
20	14421	2.802161546544	3
20	14443	2.802195146544	1
20	14580	2.803300921963	3
20	14603	2.803334521963	2
20	14635	2.803345514301	1
20	14720	2.803617522345	3
20	14727	2.803651122345	1
20	14746	2.803800151107	3
20	14757	2.803833751107	2
20	14758	2.803833751107	3
20	14779	2.803867351107	1
20	15214	2.805513963371	3
20	15236	2.805547563371	1
20	15483	2.807650429446	3
20	15505	2.807684029446	1
20	15524	2.807827399104	3
20	15546	2.807860999104	1
20	15635	2.808444691372	3
20	15668	2.808478291372	1
20	15697	2.808496512447	3
20	15704	2.808530112447	1
20	15824	2.810402594699	3
20	15831	2.810436194699	1
20	16000	2.811556107553	3
20	16007	2.811589707553	1
20	16099	2.822314470379	3
20	16135	2.822338470379	2
20	16172	2.822362409094	1
20	16443	3.000000019138	3
20	16451	3.000424019138	1
20	17082	3.442100431109	3
20	17105	3.442134031109	1
20	17184	3.442992208792	3
20	17191	3.443025808792	1
20	17248	3.443610383515	3
20	17283	3.443643983515	1
20	17381	3.443831167	3
20	17403	3.443864767	1
20	17699	3.445164336275	3
20	17721	3.445197936275	1
20	17778	3.445550213471	3
20	17800	3.445583813471	1
20	17935	3.445835682109	3
20	17942	3.445869282109	1
20	17961	3.44596125674	3
20	17968	3.44599485674	1
20	18062	3.447440495186	3
20	18097	3.447474095186	1
20	18116	3.447549558867	3
20	18138	3.447583158867	1
20	18260	3.448305346653	3
20	18267	3.448338946653	1
20	18580	3.45225424722	3
20	18587	3.45228784722	1
20	18607	3.452436095508	3
20	18614	3.452469695508	1
20	18729	3.455505830396	3
20	18751	3.455539430396	1
20	18788	3.459190058871	3
20	18795	3.459223658871	1
20	18913	3.500000019138	3
20	18920	3.500424019138	1
20	19489	4.000000019138	3
20	19497	4.000424019138	1
20	19525	4.000448057414	3
20	19541	4.000472057414	1
20	20143	4.500000019138	3
20	20151	4.500424019138	1
20	20593	4.902712513023	3
20	20600	4.902746113023	1
20	20769	5.000000019138	3
20	20777	5.000424019138	1
20	21356	5.500000019138	3
20	21364	5.500424019138	1
20	21986	6.000000019138	3
20	21993	6.000424019138	1
20	22489	6.400962275061	3
20	22511	6.400995875061	1
20	22586	6.401401498317	3
20	22615	6.401433498317	1
20	22638	6.401559406592	3
20	22657	6.401593006592	1
20	22710	6.401857663641	3
20	22764	6.402281663641	1
20	22787	6.40228176913	3
20	22871	6.40270576913	1
20	22894	6.402705874619	3
20	22928	6.403129874619	1
20	22949	6.403129980108	3
20	23075	6.403553980108	1
20	23097	6.403554085597	3
20	23203	6.403978085597	1
20	23222	6.403978191086	3
20	23306	6.404402191086	1
20	23324	6.404402296575	3
20	23391	6.404826296575	1
20	23407	6.404826402064	3
20	23422	6.404858402064	1
20	23481	6.405536718074	3
20	23491	6.405570318074	1
20	23513	6.405759847727	3
20	23523	6.405793447727	1
20	23600	6.406329877909	3
20	23607	6.406363477909	1
20	24437	6.500000019138	3
20	24463	6.500424019138	1
20	24517	6.501626644868	3
20	24540	6.501658644868	1
20	24588	6.501697064006	3
20	24607	6.501721064006	1
20	24727	6.502214374421	3
20	24737	6.502247974421	1
20	24762	6.504826402064	3
20	24778	6.505250402064	1
20	24797	6.505250507553	3
20	24852	6.505674507553	1
[...]
140	118144	27.125543170626	72
140	118484	27.300160278108	72
140	118779	27.304117541495	72
140	119205	27.450030726535	72
140	119811	27.506975406718	72
140	121314	27.821356864371	72
140	121675	27.82524575209	72
140	121828	27.827347881952	72
140	121964	27.82898110811	72
140	122269	27.861839077964	72
140	122608	27.925961691804	72
140	122797	27.94174996424	72
140	123068	27.945278699403	72
140	124103	28.304775353735	72
140	124155	28.30491326448	72
140	124219	28.305018669527	72
140	124539	28.30756470348	72
140	125195	28.570430950613	72
140	125899	28.9417682118	72
140	126187	28.946263683209	72
140	126222	28.94673165674	72
140	126689	28.952651783711	72
140	128126	29.825063155089	72
140	128329	29.83520787145	68
140	128429	29.836937958133	1048
140	128535	29.837856795319	76
140	128824	30	1048
140	129137	30.102292062186	92
140	130376	30.824663312921	72
140	131067	30.904811975361	72
140	131641	31.004792098118	72
140	133097	31.502590242664	72
140	133443	31.525393802843	72
140	134246	31.531734670236	76
140	135084	31.825631336355	72
140	135253	31.828414095596	72
140	135288	31.828645444015	72
140	135558	31.833148020733	68
140	135658	31.83458046462	1048
140	135878	31.900335401395	68
140	135939	31.900791650737	1048
140	136009	31.901215775408	1048
141	1689	0.50449258968	28
141	2191	0.50764724612	28
141	4721	0.829170670906	28
141	75686	17.135554602494	28
141	81417	17.921209223679	28
142	1737	0.504516691217	28
142	2702	0.60317421286	28
142	29052	7.342709137309	28
142	76302	17.259287007408	28
142	88729	19.100056087561	28
142	90507	19.324950433925	28
143	1764	0.504540771908	48
143	1793	0.50457290573	68
143	1883	0.504996998116	1048
143	1939	0.505421131938	1048
143	2098	0.50619422117	48
143	2268	0.507727585388	68
143	2628	0.60264635034	1048
143	2836	0.603574233578	1048
143	2882	0.604079934987	1048
143	3495	0.60970309278	68
143	3622	0.610071507688	68
143	3659	0.610103613177	68
143	3949	0.703206293551	68
143	3981	0.706923018263	68
143	4031	0.706993629241	76
143	4659	0.826053917223	68
143	4683	0.826078041894	48
143	4709	0.826110148314	68
143	4772	0.829218813073	48
143	4793	0.829250813234	68
143	4819	0.829674856459	1048
143	4844	0.83009885662	1048
143	4870	0.83052296304	1048
143	4899	0.830947096862	1048
143	5004	0.834090574033	68
143	5337	0.921196408106	68
143	5863	1.003379773426	68
143	5904	1.00422800862	1048
143	6009	1.021588549173	1048
143	6063	1.022044733625	1048
143	6112	1.022468858296	1048
143	6149	1.022892982967	1048
143	6454	1.100558983305	76
143	6591	1.101165094323	68
143	6684	1.121196573403	68
143	6713	1.121228656065	68
143	6741	1.121652738727	1048
143	6769	1.12207680432	1048
143	6797	1.122500869913	1048
143	6864	1.122960135506	1048
143	6892	1.123384201099	1048
143	6920	1.123808266692	1048
143	6948	1.124232332285	1048
143	7580	1.226390557587	76
143	8257	1.448390073101	68
143	8354	1.451331490059	68
143	8653	1.453800883651	76
143	8686	1.453836166313	76
143	8817	1.455507416359	68
143	8924	1.457804293138	68
143	8953	1.45891328439	68
143	8998	1.460531426936	68
143	9129	1.461360181412	76
143	9156	1.461395473798	76
143	9374	1.500424018774	1048
143	22611	6.401433494237	68
143	22686	6.401857494264	1048
143	22747	6.402281576926	1048
143	22851	6.402705659588	1048
143	22906	6.40312974225	1048
143	23051	6.403553824912	1048
143	23176	6.403977907574	1048
143	23278	6.404401990236	1048
143	23361	6.404826072898	1048
143	23430	6.40525015556	1048
143	23727	6.408193555271	68
143	23758	6.408994224194	68
143	23941	6.411997935693	1048
143	23985	6.412421935854	1048
143	24064	6.412845972924	1048
143	24477	6.500424098942	1048
143	24775	6.505250397984	1048
143	24850	6.505674503473	1048
143	24887	6.505706608962	68
143	24925	6.506130722066	1048
143	24954	6.506154827555	48
143	25065	6.506220624636	68
143	25373	6.512845972924	1048
143	25409	6.513270055586	1048
143	25436	6.513302138248	68
143	25745	6.606220624636	68
143	25821	6.606977006371	68
143	25900	6.612846176641	1048
143	25922	6.613270198334	1048
143	25943	6.613694220027	1048
143	25964	6.61411824172	1048
143	25986	6.614542263413	1048
143	26009	6.614966285106	1048
143	26214	6.706225436945	76
143	26245	6.706260719607	76
143	26276	6.706296002269	76
143	26307	6.706331284931	76
143	26338	6.706366567593	76
143	26369	6.706401850255	76
143	26400	6.706437132917	76
143	26425	6.706469215579	68
143	26510	6.706928521068	1048
143	26540	6.707352626557	1048
143	26578	6.707384732046	68
143	26760	6.709266919581	68
143	26796	6.709302284878	76
143	27602	7.000424101409	1048
143	28111	7.100064202818	68
143	28979	7.338715256547	68
143	29027	7.3426850597	68
143	29084	7.342733218	48
143	29105	7.343157235233	1048
143	29134	7.3435813763	1048
143	29164	7.344005510122	1048
143	29409	7.350775442352	76
143	29484	7.350881277068	76
143	29559	7.350987111784	76
143	29634	7.3510929465	76
143	29709	7.351198781216	76
143	29784	7.351304615932	76
143	29859	7.351410450648	76
143	29934	7.351516285364	76
143	30009	7.35162212008	76
143	30084	7.351727954796	76
143	30296	7.353169772257	68
143	30691	7.500424018774	1048
143	30887	7.502378776516	1048
143	31089	7.600424080691	1048
143	31183	7.600880274486	1048
143	33429	8.33405519561	68
143	33468	8.337963386907	68
143	33490	8.33838740414	1048
143	33522	8.338811545207	1048
143	33556	8.339235679029	1048
143	33655	8.339765518757	76
143	33686	8.339800811143	76
143	33983	8.500424018774	1048
143	34178	8.600424080691	1048
143	34948	8.815902615187	68
143	34990	8.820082718784	68
143	35091	8.825265815447	1048
143	35275	8.866144817273	68
143	36035	8.925265815447	1048
143	36083	8.925689921867	1048
143	36116	8.926114055689	1048
143	36251	8.926643895417	76
143	36278	8.926679187803	76
143	37015	9.000424080691	1048
143	37486	9.100032080691	68
143	37597	9.100456097924	1048
143	40399	9.375263181738	68
143	40430	9.376094624457	68
143	40490	9.376518767379	1048
143	40529	9.376942873799	1048
143	40598	9.37736699847	1048
143	40676	9.377791132292	1048
143	40862	9.477367016721	1048
143	40905	9.477791123141	1048
143	41007	9.478215247812	1048
143	41171	9.500424080691	1048
143	41409	9.578215256963	1048
143	41454	9.578639322556	1048
143	41747	9.678215266063	1048
143	41797	9.678639390734	1048
143	41892	9.679063515405	1048
143	41915	9.679487640076	1048
143	41938	9.679911764747	1048
143	41971	9.680335889418	1048
143	41994	9.680760014089	1048
143	42027	9.68118413876	1048
143	42098	9.681608263431	1048
143	42121	9.682032388102	1048
143	42144	9.682456512773	1048
143	42167	9.682880637444	1048
143	42190	9.683304762115	1048
143	42213	9.683728886786	1048
143	42236	9.684153011457	1048
143	42260	9.684577136128	1048
143	42283	9.685001260799	1048
143	42306	9.68542538547	1048
143	42329	9.685849510141	1048
143	42378	9.686273634812	1048
143	42401	9.686697759483	1048
143	42424	9.687121884154	1048
143	42447	9.687546008825	1048
143	42470	9.687970133496	1048
143	42495	9.688394258167	1048
143	42520	9.688818382838	1048
143	42544	9.689242507509	1048
143	50446	12.503009580434	1048
143	51234	12.822808409992	68
143	51262	12.823232502378	1048
143	51291	12.8236566362	1048
143	51533	12.825251851276	68
143	51581	12.825283992343	68
143	51602	12.825316009576	68
143	51635	12.825348206982	68
143	52155	12.925251967865	68
143	52312	12.928712606323	68
143	52342	12.928747940145	76
143	52666	13.000424080691	1048
143	52849	13.100424101409	1048
143	53496	13.401439955924	68
143	55229	13.827589813889	1048
143	55578	13.83308156715	68
143	55614	13.835588064592	68
143	55642	13.836012156978	1048
143	55672	13.8364362908	1048
143	55743	13.836542120122	76
143	55773	13.836666246211	68
143	55964	13.901090402482	68
143	55992	13.901514402509	1048
143	56031	13.901938485171	1048
143	56085	13.902362567833	1048
143	56153	13.902786650495	1048
143	56221	13.903210733157	1048
143	56276	13.903634815819	1048
143	56348	13.904058898481	1048
143	56405	13.904482981143	1048
143	56460	13.904907063805	1048
143	56528	13.905331411718	1048
143	56834	14.000424018774	1048
143	57030	14.001516034591	1048
143	57092	14.001975354754	1048
143	57115	14.002399376447	1048
143	57138	14.00282339814	1048
143	57161	14.003247419833	1048
143	57215	14.003671441526	1048
143	57238	14.004095463219	1048
143	57261	14.004519484912	1048
143	57284	14.004943506605	1048
143	57304	14.005367528298	1048
143	57462	14.100032080691	68
143	57582	14.100456206898	68
143	57866	14.105098856602	68
143	59566	14.507328280422	1048
143	61354	14.824134207756	68
143	61411	14.824558300142	1048
143	61474	14.824982433964	1048
143	61570	14.825194778001	68
143	61776	14.827826632276	68
143	61843	14.828529118307	1048
143	62749	15.000424080691	1048
143	64079	15.417151310284	1048
143	66112	15.832086175668	68
143	66148	15.832118340965	68
143	66252	15.832606502374	1048
143	66285	15.833030636196	1048
143	66462	15.835133212042	1048
143	66553	15.835365328695	68
143	66680	15.83563613207	68
143	66944	15.93605185177	1048
143	68847	16.332834951057	1048
143	69177	16.365910395575	1048
143	69250	16.366334496984	1048
143	69323	16.366758598393	1048
143	69418	16.367182699802	1048
143	69513	16.367606801211	1048
143	69586	16.36803090262	1048
143	69659	16.368455004029	1048
143	69732	16.368879105438	1048
143	69805	16.369303206847	1048
143	69878	16.369727308256	1048
143	70001	16.370151409665	1048
143	70074	16.370575511074	1048
143	70128	16.370999612483	1048
143	70224	16.371529363295	76
143	70434	16.424101785727	1048
143	70530	16.424631532706	76
143	70887	16.500848144572	1048
143	71059	16.503892112784	68
143	71079	16.504316130017	1048
143	71366	16.600848202818	1048
143	71537	16.601272212963	1048
143	71553	16.601307437709	76
143	71621	16.601760431931	1048
143	72754	16.730115165208	68
143	73266	16.741244850491	68
143	73566	16.825406946876	1048
143	73593	16.825830958582	1048
143	73724	16.83529650008	76
143	73773	16.835328534111	68
143	73792	16.835360568148	68
143	73857	16.835395904043	76
143	73901	16.841248050525	76
143	73926	16.841272108822	48
143	73945	16.841304110521	68
143	73996	16.841339425405	76
143	74601	17.000424018774	1048
143	74930	17.035840952029	1048
143	75743	17.135602762294	48
143	75771	17.135634937888	68
143	75805	17.135670198734	76
143	75837	17.135705516947	76
143	76243	17.258838959492	68
143	76275	17.259263002356	1048
143	76343	17.259311088099	48
143	76362	17.259346289086	76
143	77018	17.500424080691	1048
143	77047	17.500459320764	76
143	78163	17.60004815486	48
143	78195	17.600080259814	68
143	78285	17.600504333998	1048
143	78424	17.604736693486	68
143	78457	17.605160798265	1048
143	78491	17.60558487383	1048
143	78806	17.700547368019	68
143	78841	17.700582659743	76
143	79089	17.738136521546	1048
143	79676	17.820972270601	68
143	80192	17.824999009115	48
143	80214	17.825031038917	68
143	80256	17.82545518418	1048
143	80554	17.831032925429	68
143	80760	17.837312389955	68
143	80793	17.838136521546	1048
143	80824	17.83856063408	1048
143	80856	17.838984746679	1048
143	80888	17.839408859344	1048
143	80920	17.839832972074	1048
143	81025	17.84028108487	1048
143	81166	17.920972286289	68
143	81197	17.921004317952	68
143	81228	17.921036349614	68
143	81258	17.921068381275	68
143	81296	17.921103615765	76
143	81396	17.921174079085	76
143	81432	17.921209310744	76
143	81485	17.921265335951	68
143	81516	17.921289424232	48
143	81561	17.921324787457	76
143	81595	17.923121611237	68
143	81676	17.926089035974	68
143	81902	17.937392406394	68
143	81926	17.937424429277	68
143	82017	17.93992108487	68
143	82255	18.000424032308	1048
143	82646	18.021619087298	1048
143	82777	18.022111920689	1048
143	82830	18.037360408011	68
143	82866	18.037784477192	1048
143	83279	18.100521819605	68
143	83671	18.101433270498	68
143	83730	18.101857376918	1048
143	83772	18.10228151984	1048
143	83827	18.102352031354	76
143	84248	18.109389026858	68
143	84682	18.302527245897	68
143	85037	18.303819016915	48
143	85521	18.500424080691	1048
143	85724	18.600032095241	68
143	85754	18.600056109814	48
143	85795	18.600480130568	1048
143	86145	18.60536182757	1048
143	86911	18.820662885256	68
143	86941	18.820694993117	68
143	87579	19.000424029162	1048
143	88762	19.100080168252	48
143	88818	19.100121640544	68
143	89045	19.104809520455	68
143	89077	19.104841541423	68
143	89107	19.10526556385	1048
143	89627	19.227177974698	68
143	89814	19.30381894457	48
143	89848	19.303850990504	68
143	89961	19.304275026884	1048
143	90059	19.320535240108	68
143	90096	19.320959438181	1048
143	90149	19.321383480509	1048
143	90534	19.324958474303	68
143	91005	19.404275026884	1048
143	91499	19.500424077251	1048
143	91551	19.500848197485	1048
143	91723	19.504275026884	1048
143	91897	19.604275026884	1048
143	92036	19.704275026884	1048
143	92304	19.803907026884	68
143	92575	19.804755247101	1048
143	93995	20.000424098942	1048
143	94104	20.000848219105	1048
143	95123	20.316366079849	68
143	95163	20.318338032382	68
143	95185	20.318762032409	1048
143	95224	20.319186115071	1048
143	95293	20.319610197733	1048
143	95784	20.419610197733	1048
143	96187	20.421969107064	76
143	96538	20.443418812969	68
143	96624	20.444658832107	1048
143	96725	20.445931066823	1048
143	96800	20.447203301539	1048
143	96875	20.448475536255	1048
143	96950	20.449747770971	1048
143	97035	20.451020005687	1048
143	97113	20.452292240403	1048
143	97196	20.453564475119	1048
143	97274	20.454836709835	1048
143	97352	20.456108944551	1048
143	97431	20.457381179267	1048
143	97680	20.500424098942	1048
143	97737	20.500848219105	1048
143	99550	21.000848219105	1048
143	101077	21.500848219105	1048
143	102390	22.000848219105	1048
143	103138	22.500848219105	1048
143	103803	23.000848219105	1048
143	104309	23.40383609721	1048
143	104361	23.404260202699	1048
143	104412	23.404684308188	1048
143	104441	23.405108413677	1048
143	104519	23.405532519166	1048
143	104570	23.405956624655	1048
143	104621	23.406380730144	1048
143	104672	23.406804835633	1048
143	105259	23.500848219105	1048
143	106023	24.000848219105	1048
143	106768	24.500848171817	1048
143	107449	24.901790865988	1048
143	107527	24.902214971477	1048
143	107583	24.902639076966	1048
143	107639	24.903063182455	1048
143	107695	24.903487287944	1048
143	107777	24.903911393433	1048
143	107833	24.904335498922	1048
143	107911	24.904759604411	1048
143	107967	24.9051837099	1048
143	108046	24.905607815389	1048
143	108102	24.906031920878	1048
143	108158	24.906456026367	1048
143	108214	24.906880131856	1048
143	108289	24.907304237345	1048
143	108346	24.907728342834	1048
143	108402	24.908152448323	1048
143	108458	24.908576553812	1048
143	108510	24.909000659301	1048
143	108542	24.90942476479	1048
143	108933	25.000848183137	1048
143	108979	25.001272309803	1048
143	109409	25.23345191664	68
143	110082	25.237703309993	68
143	110118	25.240160175322	68
143	110151	25.240448192792	68
143	111230	25.500424018774	1048
143	111340	25.500848206898	1048
143	111482	25.505034096574	76
143	111655	25.600424098942	1048
143	111727	25.600848136012	1048
143	111758	25.601272301309	1048
143	112960	25.936283266054	68
143	113296	26.000424018774	1048
143	113528	26.100424101409	1048
143	116277	26.821476129955	1048
143	116400	26.821900967221	68
143	116538	26.823173330853	1048
143	116620	26.824040989008	68
143	116670	26.824111599986	76
143	117095	26.921937836571	76
143	117544	27.022397117262	1048
143	117948	27.122365053804	1048
143	117974	27.122789136466	1048
143	120225	27.682067580443	76
143	120302	27.682102893547	76
143	120379	27.682138206651	76
143	120447	27.682173519755	76
143	120757	27.782208642815	76
143	120816	27.782243955919	76
143	120873	27.782279269023	76
143	120931	27.782314582127	76
143	120989	27.782349895231	76
143	121036	27.782385208335	76
143	121065	27.782420521439	76
143	128313	29.833878331601	68
143	128344	29.835239952141	68
143	128379	29.836089889018	68
143	128405	29.836513932243	1048
143	128420	29.836937932404	1048
143	128446	29.837362038824	1048
143	128475	29.837786172646	1048
143	128526	29.837856783624	76
143	128553	29.83789207601	76
143	128582	29.837927418932	76
143	128910	30.000424080691	1048
143	129084	30.100424098942	1048
143	130644	30.835940622823	1048
143	130872	30.903408723843	68
143	131102	30.905105161855	1048
143	131168	30.905529282329	1048
143	131541	31.000424101409	1048
143	132080	31.100032101409	68
143	133417	31.525337770717	1048
143	133476	31.525761876206	1048
143	133526	31.526185981695	1048
143	133635	31.526610087184	1048
143	133686	31.527034192673	1048
143	133784	31.527458298162	1048
143	133835	31.527882403651	1048
143	133899	31.52830650914	1048
143	133961	31.528730614629	1048
143	134015	31.529154720118	1048
143	134045	31.529578825607	1048
143	134085	31.530002931096	1048
143	134115	31.530427036585	1048
143	134145	31.530851142074	1048
143	134176	31.531275247563	1048
143	134206	31.531699353052	1048
143	134237	31.531734658541	76
143	134264	31.531769950927	76
143	135365	31.828711258528	68
143	135533	31.831785973594	68
143	135573	31.833180101424	68
143	135601	31.833732198565	68
143	135649	31.834580438891	1048
143	135895	31.900367482086	68
143	135928	31.900791625008	1048
143	136643	31.929103258528	1048
144	2052	0.506170202396	28
144	4237	0.821140389332	28
144	85018	18.30379501056	28
144	89787	19.303794925796	28
145	2227	0.507671366283	28
145	5808	1.003323535355	28
145	81750	17.937304391857	28
145	85484	18.500024073123	28
146	2583	0.602198143442	28
146	71805	16.701329918406	28
146	73205	16.741212775148	28
146	75716	17.135578720722	28
146	84748	18.303550971054	28
147	2803	0.603231852643	28
147	4735	0.829194692599	28
147	76197	17.258806955522	28
147	80701	17.837280308179	28
147	85472	18.50002401872	28
148	4199	0.821116430934	28
148	4611	0.82599769361	28
148	73164	16.74118871976	28
148	73454	16.824950848135	28
148	77524	17.504317454918	28
148	80105	17.824950848135	28
149	4442	0.822338389956	28
149	10104	1.822338389956	28
149	16124	2.822338389956	28
149	19521	4.000448038276	28
149	78135	17.60002408956	28
150	4601	0.825997686177	28
150	29022	7.342685058159	28
150	73156	16.741188702887	28
150	73446	16.82495084509	28
150	80100	17.82495084509	28
150	90040	19.320503198623	28
150	95425	20.320503198623	28
150	100580	21.320503198623	28
151	5782	1.003299417758	28
151	51629	12.825348129733	28
151	54938	13.825348129733	28
151	61610	14.825348129733	28
151	67250	16	28
151	74446	17	28
151	79553	17.820582610918	28
151	79793	17.822688026848	28
151	82139	18	28
151	84967	18.303770884645	28
151	86824	18.820582610918	28
151	87900	19.002960837852	28
151	89765	19.303770884645	28
151	94114	20.002960837852	28
151	99559	21.002960837852	28
152	19253	3.822314370818	48
152	19253	3.822314370818	56
152	19253	3.822314370818	56
152	19253	3.822314370818	56
152	19253	3.822314370818	56
152	19253	3.822314370818	56
152	19253	3.822314370818	56
153	19254	3.822314416108	48
153	100944	21.5	1028
153	100944	21.5	48
154	19255	3.822314456375	48
154	102730	22.327213284267	56
155	24582	6.501697044868	28
155	26876	6.711230412455	28
155	70986	16.503860056177	28
155	72826	16.73481898864	28
155	79452	17.820459789674	28
155	79723	17.822032009397	28
155	80282	17.826132211121	28
156	30109	7.35176322251	56
156	97423	20.457381143451	1028
157	65473	15.825348129733	1028
157	65473	15.825348129733	48
157	65473	15.825348129733	1028
157	65473	15.825348129733	1028
157	65473	15.825348129733	1028
157	65473	15.825348129733	1028
157	65473	15.825348129733	1028
157	65473	15.825348129733	1028
157	65473	15.825348129733	1028
157	65473	15.825348129733	1028
157	65473	15.825348129733	1028
157	65473	15.825348129733	1028
157	65473	15.825348129733	1028
157	65473	15.825348129733	1028
157	65473	15.825348129733	1028
157	65473	15.825348129733	1028
157	65473	15.825348129733	1028
157	65473	15.825348129733	1028
157	65473	15.825348129733	1028
157	65473	15.825348129733	1028
157	65473	15.825348129733	1028
157	65473	15.825348129733	1028
157	65473	15.825348129733	1028
157	65473	15.825348129733	1028
157	65473	15.825348129733	1028
157	65473	15.825348129733	1028
157	65473	15.825348129733	1028
157	65473	15.825348129733	1028
157	65473	15.825348129733	1028
157	65473	15.825348129733	1028
157	87483	19	1028
157	87483	19	1028
157	102399	22.002960837852	48
157	102399	22.002960837852	48
158	84722	18.30352687173	28
158	90453	19.32492638583	28
158	95541	20.32492638583	28
158	100705	21.32492638583	28
159	93467	19.824950862887	48
160	102728	22.320503198623	48
161	102729	22.32492638583	48

