version 2
run SuperpositioningMobility-0-20181219-21:47:05-33703
attr configname SuperpositioningMobility
attr datetime 20181219-21:47:05
attr experiment SuperpositioningMobility
attr inifile omnetpp.ini
attr iterationvars ""
attr iterationvarsf ""
attr measurement ""
attr network AODVNetwork
attr processid 33703
attr repetition 0
attr replication #0
attr resultdir results
attr runnumber 0
attr seedset 0
param *.numHosts 10
param *.hasVisualizer true
param *.visualizer.mobilityVisualizer.moduleFilter "\"**.mobility\""
param **.host[*].mobility.typename "\"SuperpositioningMobility\""
param **.host[*].mobility.numElements 2
param **.host*.mobility.element[0].typename "\"CircleMobility\""
param **.host[0..11].mobility.element[0].cx 200m
param **.host[0..11].mobility.element[0].cy 200m
param **.host[0..11].mobility.element[0].r 90m
param **.host[0..11].mobility.element[0].speed 2000mps
param **.host[1].mobility.element[0].startAngle 0deg
param **.host[2].mobility.element[0].startAngle 30deg
param **.host[3].mobility.element[0].startAngle 60deg
param **.host[4].mobility.element[0].startAngle 90deg
param **.host[5].mobility.element[0].startAngle 120deg
param **.host[6].mobility.element[0].startAngle 150deg
param **.host[7].mobility.element[0].startAngle 180deg
param **.host[8].mobility.element[0].startAngle 210deg
param **.host[9].mobility.element[0].startAngle 240deg
param **.host[10].mobility.element[0].startAngle 270deg
param **.host[11].mobility.element[0].startAngle 300deg
param **.host[0].mobility.element[0].startAngle 330deg
param **.host*.mobility.element[1].typename "\"LinearMobility\""
param **.host*.mobility.element[1].initFromDisplayString false
param **.host*.mobility.element[1].speed 50mps
param **.host*.mobility.element[1].angle 30deg
param **.host*.mobility.element[1].initialX uniform(100m,150m)
param **.host*.mobility.element[1].initialY uniform(100m,200m)
param *.numHosts 10
param **.wlan[*].typename "\"AckingWirelessInterface\""
param **.wlan[*].bitrate 20Mbps
param **.wlan[*].mac.headerLength 20B
param **.wlan[*].radio.typename "\"UnitDiskRadio\""
param **.wlan[*].radio.transmitter.headerLength 96b
param **.wlan[*].radio.transmitter.communicationRange 40m
param **.wlan[*].radio.transmitter.interferenceRange 40m
param **.wlan[*].radio.transmitter.detectionRange 40m
param **.wlan[*].radio.receiver.ignoreInterference true
param **.aodv.activeRouteTimeout 1s
param **.radioMedium.rangeFilter "\"communicationRange\""
param **.refillPeriod 1s
param **.radioMedium.mediumLimitCache.communicationRange 40m
param **.radioMedium.neighborCache.typename "\"NeighborListNeighborCache\""
param **.radioMedium.neighborCache.range 40m
param **.constraintAreaMinX 0m
param **.constraintAreaMinY 0m
param **.constraintAreaMaxX 600m
param **.constraintAreaMaxY 600m
param **.constraintAreaMinZ 0m
param **.constraintAreaMaxZ 0m
param **.updateInterval 0.01s
param **.wlan[*].mgmt.frameCapacity 10
param **.wlan[*].mac.retryLimit 7
param **.hasStatus true
param *.hasVisualizer true
param *.visualizer.mobilityVisualizer.moduleFilter "\"**.mobility\""
param *.visualizer.mobilityVisualizer.displayMovementTrails false
param *.visualizer.mediumVisualizer.displayCommunicationRanges true
param *.visualizer.mediumVisualizer.displayInterferenceRanges false
param *.visualizer.mediumVisualizer.displaySignals false
param *.configurator.addStaticRoutes false
param *.host*.numApps 1
param *.host*.app[0].typename "\"UdpBasicApp\""
param *.host*.app[0].localPort 100
param *.host*.app[0].sendInterval 0.5s
param *.host*.app[0].messageLength 1000B
param **.hasIpv4 true
param **.hasIpv6 false
param **.hasGn false
param *.host*.app[0].destAddresses "\"host[*]\""
param *.host*.app[0].destPort 1000

vector 0 AODVNetwork.host[0].wlan[0].queue queueLength:vector ETV
attr interpolationmode sample-hold
attr title "queue length, vector"
vector 1 AODVNetwork.host[0].wlan[0].radio radioMode:vector ETV
attr interpolationmode sample-hold
attr source radioModeChanged
attr title "Radio mode, vector"
vector 2 AODVNetwork.host[1].wlan[0].queue queueLength:vector ETV
attr interpolationmode sample-hold
attr title "queue length, vector"
vector 3 AODVNetwork.host[1].wlan[0].radio radioMode:vector ETV
attr interpolationmode sample-hold
attr source radioModeChanged
attr title "Radio mode, vector"
vector 4 AODVNetwork.host[2].wlan[0].queue queueLength:vector ETV
attr interpolationmode sample-hold
attr title "queue length, vector"
vector 5 AODVNetwork.host[2].wlan[0].radio radioMode:vector ETV
attr interpolationmode sample-hold
attr source radioModeChanged
attr title "Radio mode, vector"
vector 6 AODVNetwork.host[3].wlan[0].queue queueLength:vector ETV
attr interpolationmode sample-hold
attr title "queue length, vector"
vector 7 AODVNetwork.host[3].wlan[0].radio radioMode:vector ETV
attr interpolationmode sample-hold
attr source radioModeChanged
attr title "Radio mode, vector"
vector 8 AODVNetwork.host[4].wlan[0].queue queueLength:vector ETV
attr interpolationmode sample-hold
attr title "queue length, vector"
vector 9 AODVNetwork.host[4].wlan[0].radio radioMode:vector ETV
attr interpolationmode sample-hold
attr source radioModeChanged
attr title "Radio mode, vector"
vector 10 AODVNetwork.host[5].wlan[0].queue queueLength:vector ETV
attr interpolationmode sample-hold
attr title "queue length, vector"
vector 11 AODVNetwork.host[5].wlan[0].radio radioMode:vector ETV
attr interpolationmode sample-hold
attr source radioModeChanged
attr title "Radio mode, vector"
vector 12 AODVNetwork.host[6].wlan[0].queue queueLength:vector ETV
attr interpolationmode sample-hold
attr title "queue length, vector"
vector 13 AODVNetwork.host[6].wlan[0].radio radioMode:vector ETV
attr interpolationmode sample-hold
attr source radioModeChanged
attr title "Radio mode, vector"
vector 14 AODVNetwork.host[7].wlan[0].queue queueLength:vector ETV
attr interpolationmode sample-hold
attr title "queue length, vector"
vector 15 AODVNetwork.host[7].wlan[0].radio radioMode:vector ETV
attr interpolationmode sample-hold
attr source radioModeChanged
attr title "Radio mode, vector"
vector 16 AODVNetwork.host[8].wlan[0].queue queueLength:vector ETV
attr interpolationmode sample-hold
attr title "queue length, vector"
vector 17 AODVNetwork.host[8].wlan[0].radio radioMode:vector ETV
attr interpolationmode sample-hold
attr source radioModeChanged
attr title "Radio mode, vector"
vector 18 AODVNetwork.host[9].wlan[0].queue queueLength:vector ETV
attr interpolationmode sample-hold
attr title "queue length, vector"
vector 19 AODVNetwork.host[9].wlan[0].radio radioMode:vector ETV
attr interpolationmode sample-hold
attr source radioModeChanged
attr title "Radio mode, vector"
vector 20 AODVNetwork.host[0].wlan[0].radio receptionState:vector ETV
attr interpolationmode sample-hold
attr source receptionStateChanged
attr title "Radio reception state, vector"
vector 21 AODVNetwork.host[0].wlan[0].radio transmissionState:vector ETV
attr interpolationmode sample-hold
attr source transmissionStateChanged
attr title "Radio transmission state, vector"
vector 22 AODVNetwork.host[1].wlan[0].radio receptionState:vector ETV
attr interpolationmode sample-hold
attr source receptionStateChanged
attr title "Radio reception state, vector"
vector 23 AODVNetwork.host[1].wlan[0].radio transmissionState:vector ETV
attr interpolationmode sample-hold
attr source transmissionStateChanged
attr title "Radio transmission state, vector"
vector 24 AODVNetwork.host[2].wlan[0].radio receptionState:vector ETV
attr interpolationmode sample-hold
attr source receptionStateChanged
attr title "Radio reception state, vector"
vector 25 AODVNetwork.host[2].wlan[0].radio transmissionState:vector ETV
attr interpolationmode sample-hold
attr source transmissionStateChanged
attr title "Radio transmission state, vector"
vector 26 AODVNetwork.host[3].wlan[0].radio receptionState:vector ETV
attr interpolationmode sample-hold
attr source receptionStateChanged
attr title "Radio reception state, vector"
vector 27 AODVNetwork.host[3].wlan[0].radio transmissionState:vector ETV
attr interpolationmode sample-hold
attr source transmissionStateChanged
attr title "Radio transmission state, vector"
vector 28 AODVNetwork.host[4].wlan[0].radio receptionState:vector ETV
attr interpolationmode sample-hold
attr source receptionStateChanged
attr title "Radio reception state, vector"
vector 29 AODVNetwork.host[4].wlan[0].radio transmissionState:vector ETV
attr interpolationmode sample-hold
attr source transmissionStateChanged
attr title "Radio transmission state, vector"
vector 30 AODVNetwork.host[5].wlan[0].radio receptionState:vector ETV
attr interpolationmode sample-hold
attr source receptionStateChanged
attr title "Radio reception state, vector"
vector 31 AODVNetwork.host[5].wlan[0].radio transmissionState:vector ETV
attr interpolationmode sample-hold
attr source transmissionStateChanged
attr title "Radio transmission state, vector"
vector 32 AODVNetwork.host[6].wlan[0].radio receptionState:vector ETV
attr interpolationmode sample-hold
attr source receptionStateChanged
attr title "Radio reception state, vector"
vector 33 AODVNetwork.host[6].wlan[0].radio transmissionState:vector ETV
attr interpolationmode sample-hold
attr source transmissionStateChanged
attr title "Radio transmission state, vector"
vector 34 AODVNetwork.host[7].wlan[0].radio receptionState:vector ETV
attr interpolationmode sample-hold
attr source receptionStateChanged
attr title "Radio reception state, vector"
vector 35 AODVNetwork.host[7].wlan[0].radio transmissionState:vector ETV
attr interpolationmode sample-hold
attr source transmissionStateChanged
attr title "Radio transmission state, vector"
vector 36 AODVNetwork.host[8].wlan[0].radio receptionState:vector ETV
attr interpolationmode sample-hold
attr source receptionStateChanged
attr title "Radio reception state, vector"
vector 37 AODVNetwork.host[8].wlan[0].radio transmissionState:vector ETV
attr interpolationmode sample-hold
attr source transmissionStateChanged
attr title "Radio transmission state, vector"
vector 38 AODVNetwork.host[9].wlan[0].radio receptionState:vector ETV
attr interpolationmode sample-hold
attr source receptionStateChanged
attr title "Radio reception state, vector"
vector 39 AODVNetwork.host[9].wlan[0].radio transmissionState:vector ETV
attr interpolationmode sample-hold
attr source transmissionStateChanged
attr title "Radio transmission state, vector"
vector 40 AODVNetwork.host[0].app[0] packetSent:vector(packetBytes) ETV
attr interpolationmode none
attr source packetSent
attr title "packets sent, vector(packetBytes)"
vector 41 AODVNetwork.host[1].app[0] packetSent:vector(packetBytes) ETV
attr interpolationmode none
attr source packetSent
attr title "packets sent, vector(packetBytes)"
vector 42 AODVNetwork.host[2].app[0] packetSent:vector(packetBytes) ETV
attr interpolationmode none
attr source packetSent
attr title "packets sent, vector(packetBytes)"
vector 43 AODVNetwork.host[3].app[0] packetSent:vector(packetBytes) ETV
attr interpolationmode none
attr source packetSent
attr title "packets sent, vector(packetBytes)"
vector 44 AODVNetwork.host[4].app[0] packetSent:vector(packetBytes) ETV
attr interpolationmode none
attr source packetSent
attr title "packets sent, vector(packetBytes)"
vector 45 AODVNetwork.host[5].app[0] packetSent:vector(packetBytes) ETV
attr interpolationmode none
attr source packetSent
attr title "packets sent, vector(packetBytes)"
vector 46 AODVNetwork.host[6].app[0] packetSent:vector(packetBytes) ETV
attr interpolationmode none
attr source packetSent
attr title "packets sent, vector(packetBytes)"
vector 47 AODVNetwork.host[7].app[0] packetSent:vector(packetBytes) ETV
attr interpolationmode none
attr source packetSent
attr title "packets sent, vector(packetBytes)"
vector 48 AODVNetwork.host[8].app[0] packetSent:vector(packetBytes) ETV
attr interpolationmode none
attr source packetSent
attr title "packets sent, vector(packetBytes)"
vector 49 AODVNetwork.host[9].app[0] packetSent:vector(packetBytes) ETV
attr interpolationmode none
attr source packetSent
attr title "packets sent, vector(packetBytes)"
vector 50 AODVNetwork.host[0].udp packetSent:vector(packetBytes) ETV
attr interpolationmode none
attr source packetSent
attr title "packets sent, vector(packetBytes)"
vector 51 AODVNetwork.host[1].udp packetSent:vector(packetBytes) ETV
attr interpolationmode none
attr source packetSent
attr title "packets sent, vector(packetBytes)"
vector 52 AODVNetwork.host[2].udp packetSent:vector(packetBytes) ETV
attr interpolationmode none
attr source packetSent
attr title "packets sent, vector(packetBytes)"
vector 53 AODVNetwork.host[3].udp packetSent:vector(packetBytes) ETV
attr interpolationmode none
attr source packetSent
attr title "packets sent, vector(packetBytes)"
vector 54 AODVNetwork.host[4].udp packetSent:vector(packetBytes) ETV
attr interpolationmode none
attr source packetSent
attr title "packets sent, vector(packetBytes)"
vector 55 AODVNetwork.host[5].udp packetSent:vector(packetBytes) ETV
attr interpolationmode none
attr source packetSent
attr title "packets sent, vector(packetBytes)"
vector 56 AODVNetwork.host[6].udp packetSent:vector(packetBytes) ETV
attr interpolationmode none
attr source packetSent
attr title "packets sent, vector(packetBytes)"
vector 57 AODVNetwork.host[7].udp packetSent:vector(packetBytes) ETV
attr interpolationmode none
attr source packetSent
attr title "packets sent, vector(packetBytes)"
vector 58 AODVNetwork.host[8].udp packetSent:vector(packetBytes) ETV
attr interpolationmode none
attr source packetSent
attr title "packets sent, vector(packetBytes)"
vector 59 AODVNetwork.host[9].udp packetSent:vector(packetBytes) ETV
attr interpolationmode none
attr source packetSent
attr title "packets sent, vector(packetBytes)"
vector 60 AODVNetwork.host[0].lo[0].lo rcvdPkFromHl:vector(packetBytes) ETV
attr interpolationmode none
attr source packetReceivedFromUpper
attr title "packets received from higher layer, vector(packetBytes)"
vector 61 AODVNetwork.host[0].lo[0].lo passedUpPk:vector(packetBytes) ETV
attr interpolationmode none
attr source packetSentToUpper
attr title "packets passed to higher layer, vector(packetBytes)"
vector 62 AODVNetwork.host[0].udp packetReceived:vector(packetBytes) ETV
attr interpolationmode none
attr source packetReceived
attr title "packets received, vector(packetBytes)"
vector 63 AODVNetwork.host[0].udp droppedPkWrongPort:vector(count) ETV
attr interpolationmode none
attr source packetDropReasonIsNoPortFound(packetDropped)
attr title "packets dropped (wrong port), vector(count)"
vector 64 AODVNetwork.host[9].wlan[0].queue packetReceived:vector(packetBytes) ETV
attr interpolationmode none
attr title "received packets, vector(packetBytes)"
vector 65 AODVNetwork.host[9].wlan[0].queue queueingTime:vector ETV
attr interpolationmode none
attr title "queueing time, vector"
vector 66 AODVNetwork.host[9].wlan[0].mac rcvdPkFromHl:vector(packetBytes) ETV
attr interpolationmode none
attr source packetReceivedFromUpper
attr title "packets received from higher layer, vector(packetBytes)"
vector 67 AODVNetwork.host[9].wlan[0].mac sentDownPk:vector(packetBytes) ETV
attr interpolationmode none
attr source packetSentToLower
attr title "packets sent to lower layer, vector(packetBytes)"
vector 68 AODVNetwork.host[5].wlan[0].queue packetReceived:vector(packetBytes) ETV
attr interpolationmode none
attr title "received packets, vector(packetBytes)"
vector 69 AODVNetwork.host[5].wlan[0].queue queueingTime:vector ETV
attr interpolationmode none
attr title "queueing time, vector"
vector 70 AODVNetwork.host[5].wlan[0].mac rcvdPkFromHl:vector(packetBytes) ETV
attr interpolationmode none
attr source packetReceivedFromUpper
attr title "packets received from higher layer, vector(packetBytes)"
vector 71 AODVNetwork.host[5].wlan[0].mac sentDownPk:vector(packetBytes) ETV
attr interpolationmode none
attr source packetSentToLower
attr title "packets sent to lower layer, vector(packetBytes)"
vector 72 AODVNetwork.host[2].wlan[0].queue packetReceived:vector(packetBytes) ETV
attr interpolationmode none
attr title "received packets, vector(packetBytes)"
vector 73 AODVNetwork.host[2].wlan[0].queue queueingTime:vector ETV
attr interpolationmode none
attr title "queueing time, vector"
vector 74 AODVNetwork.host[2].wlan[0].mac rcvdPkFromHl:vector(packetBytes) ETV
attr interpolationmode none
attr source packetReceivedFromUpper
attr title "packets received from higher layer, vector(packetBytes)"
vector 75 AODVNetwork.host[2].wlan[0].mac sentDownPk:vector(packetBytes) ETV
attr interpolationmode none
attr source packetSentToLower
attr title "packets sent to lower layer, vector(packetBytes)"
vector 76 AODVNetwork.host[6].wlan[0].queue packetReceived:vector(packetBytes) ETV
attr interpolationmode none
attr title "received packets, vector(packetBytes)"
vector 77 AODVNetwork.host[6].wlan[0].queue queueingTime:vector ETV
attr interpolationmode none
attr title "queueing time, vector"
vector 78 AODVNetwork.host[6].wlan[0].mac rcvdPkFromHl:vector(packetBytes) ETV
attr interpolationmode none
attr source packetReceivedFromUpper
attr title "packets received from higher layer, vector(packetBytes)"
vector 79 AODVNetwork.host[6].wlan[0].mac sentDownPk:vector(packetBytes) ETV
attr interpolationmode none
attr source packetSentToLower
attr title "packets sent to lower layer, vector(packetBytes)"
vector 80 AODVNetwork.host[8].wlan[0].queue packetReceived:vector(packetBytes) ETV
attr interpolationmode none
attr title "received packets, vector(packetBytes)"
vector 81 AODVNetwork.host[8].wlan[0].queue queueingTime:vector ETV
attr interpolationmode none
attr title "queueing time, vector"
vector 82 AODVNetwork.host[8].wlan[0].mac rcvdPkFromHl:vector(packetBytes) ETV
attr interpolationmode none
attr source packetReceivedFromUpper
attr title "packets received from higher layer, vector(packetBytes)"
vector 83 AODVNetwork.host[8].wlan[0].mac sentDownPk:vector(packetBytes) ETV
attr interpolationmode none
attr source packetSentToLower
attr title "packets sent to lower layer, vector(packetBytes)"
vector 84 AODVNetwork.host[7].wlan[0].queue packetReceived:vector(packetBytes) ETV
attr interpolationmode none
attr title "received packets, vector(packetBytes)"
vector 85 AODVNetwork.host[7].wlan[0].queue queueingTime:vector ETV
attr interpolationmode none
attr title "queueing time, vector"
vector 86 AODVNetwork.host[7].wlan[0].mac rcvdPkFromHl:vector(packetBytes) ETV
attr interpolationmode none
attr source packetReceivedFromUpper
attr title "packets received from higher layer, vector(packetBytes)"
vector 87 AODVNetwork.host[7].wlan[0].mac sentDownPk:vector(packetBytes) ETV
attr interpolationmode none
attr source packetSentToLower
attr title "packets sent to lower layer, vector(packetBytes)"
vector 88 AODVNetwork.host[3].wlan[0].queue packetReceived:vector(packetBytes) ETV
attr interpolationmode none
attr title "received packets, vector(packetBytes)"
vector 89 AODVNetwork.host[3].wlan[0].queue queueingTime:vector ETV
attr interpolationmode none
attr title "queueing time, vector"
vector 90 AODVNetwork.host[3].wlan[0].mac rcvdPkFromHl:vector(packetBytes) ETV
attr interpolationmode none
attr source packetReceivedFromUpper
attr title "packets received from higher layer, vector(packetBytes)"
vector 91 AODVNetwork.host[3].wlan[0].mac sentDownPk:vector(packetBytes) ETV
attr interpolationmode none
attr source packetSentToLower
attr title "packets sent to lower layer, vector(packetBytes)"
vector 92 AODVNetwork.host[4].wlan[0].queue packetReceived:vector(packetBytes) ETV
attr interpolationmode none
attr title "received packets, vector(packetBytes)"
vector 93 AODVNetwork.host[4].wlan[0].queue queueingTime:vector ETV
attr interpolationmode none
attr title "queueing time, vector"
vector 94 AODVNetwork.host[4].wlan[0].mac rcvdPkFromHl:vector(packetBytes) ETV
attr interpolationmode none
attr source packetReceivedFromUpper
attr title "packets received from higher layer, vector(packetBytes)"
vector 95 AODVNetwork.host[4].wlan[0].mac sentDownPk:vector(packetBytes) ETV
attr interpolationmode none
attr source packetSentToLower
attr title "packets sent to lower layer, vector(packetBytes)"
vector 96 AODVNetwork.host[1].wlan[0].queue packetReceived:vector(packetBytes) ETV
attr interpolationmode none
attr title "received packets, vector(packetBytes)"
vector 97 AODVNetwork.host[1].wlan[0].queue queueingTime:vector ETV
attr interpolationmode none
attr title "queueing time, vector"
vector 98 AODVNetwork.host[1].wlan[0].mac rcvdPkFromHl:vector(packetBytes) ETV
attr interpolationmode none
attr source packetReceivedFromUpper
attr title "packets received from higher layer, vector(packetBytes)"
vector 99 AODVNetwork.host[1].wlan[0].mac sentDownPk:vector(packetBytes) ETV
attr interpolationmode none
attr source packetSentToLower
attr title "packets sent to lower layer, vector(packetBytes)"
0	0	0	0
1	0	0	0
1	0	0	0
1	0	0	4
2	0	0	0
3	0	0	0
3	0	0	0
3	0	0	4
4	0	0	0
5	0	0	0
5	0	0	0
5	0	0	4
6	0	0	0
7	0	0	0
7	0	0	0
7	0	0	4
8	0	0	0
9	0	0	0
9	0	0	0
9	0	0	4
10	0	0	0
11	0	0	0
11	0	0	0
11	0	0	4
12	0	0	0
13	0	0	0
13	0	0	0
13	0	0	4
14	0	0	0
15	0	0	0
15	0	0	0
15	0	0	4
16	0	0	0
17	0	0	0
17	0	0	0
17	0	0	4
18	0	0	0
19	0	0	0
19	0	0	0
19	0	0	4
20	0	0	1
21	0	0	1
22	0	0	1
23	0	0	1
23	1093	0.504893091714	2
23	1094	0.504926691714	1
23	1786	0.823603163258	2
23	1787	0.823636763258	1
23	2829	1.30009394899	2
23	2830	1.30012754899	1
23	4251	1.944849045343	2
23	4252	1.944882645343	1
23	10471	4.901480700996	2
23	10472	4.901514300996	1
23	16711	7.86058100955	2
23	16712	7.86061460955	1
23	23376	11.000812464657	2
23	23381	11.000846064657	1
23	24098	11.322056983622	2
23	24100	11.322090583622	1
23	25136	11.800058570408	2
23	25137	11.800092170408	1
23	26559	12.44437286481	2
23	26560	12.44440646481	1
23	32819	15.40495169473	2
23	32820	15.40498529473	1
23	39064	18.363522371309	2
23	39065	18.363555971309	1
23	45683	21.501736167559	2
23	45684	21.501769767559	1
23	46381	21.820020240528	2
23	46382	21.820053840528	1
23	47494	22.304864597451	2
23	47495	22.304898197451	1
23	48876	22.944764353356	2
23	48877	22.944797953356	1
23	55096	25.902299279394	2
23	55097	25.902332879394	1
23	61341	28.861541430816	2
23	61342	28.861575030816	1
23	68006	32.000655276173	2
23	68007	32.000688876173	1
23	68714	32.321871615975	2
23	68715	32.321905215975	1
23	69761	32.801207093091	2
23	69766	32.801240693091	1
23	71174	33.442235719195	2
23	71175	33.442269319195	1
23	77434	36.404701048468	2
23	77435	36.404734648468	1
23	83659	39.361649678267	2
23	83660	39.361683278267	1
23	90323	42.502549035959	2
23	90324	42.502582635959	1
23	91046	42.824955708269	2
23	91047	42.824989308269	1
23	92119	43.304902900667	2
23	92120	43.304936500667	1
23	93461	43.940532147062	2
23	93462	43.940565747062	1
23	99716	46.901419999896	2
23	99717	46.901453599896	1
23	105961	49.860262540811	2
23	105962	49.860296140811	1
23	112645	53.002026867926	2
23	112647	53.002060467926	1
23	113334	53.322654300632	2
23	113335	53.322687900632	1
23	114410	53.802620919276	2
23	114412	53.802654519276	1
23	115814	54.44137287525	2
23	115815	54.44140647525	1
23	122039	57.400586901482	2
23	122040	57.400620501482	1
23	128314	60.363865174893	2
23	128315	60.363898774893	1
23	134958	63.501442849792	2
23	134959	63.501476449792	1
23	135656	63.823056637108	2
23	135657	63.823090237108	1
23	136714	64.301076991031	2
23	136715	64.301110591031	1
23	138096	64.940286603094	2
23	138097	64.940320203094	1
23	144376	67.904494805469	2
23	144377	67.904528405469	1
23	150596	70.860974504992	2
23	150597	70.861008104992	1
23	157264	74.001976166202	2
23	157267	74.002009766202	1
23	157969	74.323972532268	2
23	157970	74.324006132268	1
23	159046	74.804268030201	2
23	159047	74.804301630201	1
23	160408	75.440361751848	2
23	160410	75.440395351848	1
23	166664	78.402379130956	2
23	166665	78.402412730956	1
23	172944	81.364605961053	2
23	172945	81.364639561053	1
23	179558	84.501323247969	2
23	179559	84.501356847969	1
23	180266	84.822060262201	2
23	180267	84.822093862201	1
23	181349	85.301771124105	2
23	181350	85.301804724105	1
23	182731	85.941781574927	2
23	182732	85.941815174927	1
23	188991	88.903191950537	2
23	188992	88.903225550537	1
23	195226	91.861816119787	2
23	195227	91.861849719787	1
23	201881	95.000493051835	2
23	201882	95.000526651835	1
23	202574	95.320046875915	2
23	202575	95.320080475915	1
23	203676	95.804963334961	2
23	203677	95.804996934961	1
23	205049	96.441391644034	2
23	205050	96.441425244034	1
23	211309	99.404307954813	2
23	211310	99.404341554813	1
23	217554	102.363442314658	2
23	217555	102.363475914658	1
23	224193	105.501290296082	2
23	224194	105.501323896082	1
23	224906	105.822585606889	2
23	224907	105.822619206889	1
23	225979	106.302887950457	2
23	225980	106.302921550457	1
23	227341	106.942619972391	2
23	227342	106.942653572391	1
23	233626	109.904436415763	2
23	233627	109.904470015763	1
23	239865	112.863286505056	2
23	239867	112.863320105056	1
23	246521	116.002214365152	2
23	246522	116.002247965152	1
23	247209	116.320763711735	2
23	247210	116.320797311735	1
23	248286	116.802657471405	2
23	248287	116.802691071405	1
23	249689	117.443797450502	2
23	249690	117.443831050502	1
23	255914	120.400525473481	2
23	255915	120.400559073481	1
23	262184	123.362374424381	2
23	262185	123.362408024381	1
23	268843	126.504953258471	2
23	268844	126.504986858471	1
23	269531	126.823605688344	2
23	269532	126.823639288344	1
23	270589	127.300908111976	2
23	270590	127.300941711976	1
23	271976	127.942710086759	2
23	271977	127.942743686759	1
23	278241	130.902980922208	2
23	278242	130.903014522208	1
23	284466	133.860617476107	2
23	284467	133.860651076107	1
23	291136	137.002467892679	2
23	291137	137.002501492679	1
23	291844	137.323228043368	2
23	291845	137.323261643368	1
23	292921	137.803080914988	2
23	292922	137.803114514988	1
23	294309	138.442531226047	2
23	294310	138.442564826047	1
23	300539	141.403138778574	2
23	300540	141.403172378574	1
23	306804	144.362548992942	2
23	306809	144.362582592942	1
23	313463	147.504775320715	2
23	313464	147.504808920715	1
23	314171	147.824575724024	2
23	314172	147.824609324024	1
23	315214	148.300524171047	2
23	315215	148.300557771047	1
23	316586	148.940019300126	2
23	316587	148.940052900126	1
23	322841	151.90046224089	2
23	322842	151.90049584089	1
23	329096	154.861821422842	2
23	329097	154.861855022842	1
23	335776	158.004057592371	2
23	335777	158.004091192371	1
23	336449	158.320292837038	2
23	336450	158.320326437038	1
23	337511	158.800126159128	2
23	337512	158.800159759128	1
23	338919	159.44145380732	2
23	338920	159.44148740732	1
23	345184	162.402661680323	2
23	345185	162.402695280323	1
23	351404	165.360923692659	2
23	351405	165.360957292659	1
23	358073	168.503540374656	2
23	358074	168.503573974656	1
23	358776	168.822009222595	2
23	358777	168.822042822595	1
23	359854	169.302862251067	2
23	359855	169.302895851067	1
23	361246	169.944567163034	2
23	361247	169.944600763034	1
23	367491	172.90477956154	2
23	367496	172.90481316154	1
23	373726	175.861742868185	2
23	373727	175.861776468185	1
23	380376	179.000665379984	2
23	380377	179.000698979984	1
23	381104	179.323580288562	2
23	381105	179.323613888562	1
23	382166	179.804103671305	2
23	382167	179.804137271305	1
23	383539	180.441573620298	2
23	383540	180.441607220298	1
23	389819	183.40495226655	2
23	389820	183.40498586655	1
23	396029	186.360513772214	2
23	396030	186.360547372214	1
23	402678	189.500941997594	2
23	402679	189.500975597594	1
23	403391	189.821789336494	2
23	403392	189.821822936494	1
23	404474	190.30293744263	2
23	404475	190.30297104263	1
23	405836	190.940273388741	2
23	405837	190.940306988741	1
23	412121	193.902882975403	2
23	412122	193.902916575403	1
23	418351	196.861776713091	2
23	418352	196.861810313091	1
23	425016	200.002767709792	2
23	425017	200.002801309792	1
23	425704	200.322017426	2
23	425705	200.322051026	1
23	426761	200.800890329428	2
23	426762	200.800923929428	1
23	428179	201.443073682464	2
23	428180	201.443107282464	1
23	434419	204.401614535557	2
23	434420	204.401648135557	1
23	440654	207.360042230705	2
23	440655	207.360075830705	1
23	447333	210.502521931616	2
23	447334	210.502555531616	1
23	448021	210.822254476007	2
23	448022	210.822288076007	1
23	449099	211.303965143312	2
23	449100	211.303998743312	1
23	450481	211.941993938014	2
23	450482	211.942027538014	1
23	456711	214.901163009374	2
23	456712	214.901196609374	1
23	463001	217.864760528806	2
23	463002	217.864794128806	1
23	469656	221.004333302872	2
23	469657	221.004366902872	1
23	470329	221.320506590845	2
23	470330	221.320540190845	1
23	471396	221.801332523192	2
23	471397	221.801366123192	1
23	472809	222.444276456744	2
23	472810	222.444310056744	1
23	479044	225.40145113321	2
23	479045	225.40148473321	1
23	485309	228.364014305378	2
23	485310	228.364047905378	1
23	491958	231.502945067458	2
23	491959	231.502978667458	1
23	492641	231.821202774473	2
23	492642	231.821236374473	1
23	493734	232.303797681526	2
23	493735	232.303831281526	1
23	495096	232.943076028576	2
23	495097	232.943109628576	1
23	501351	235.902076836489	2
23	501352	235.902110436489	1
23	507591	238.86046649479	2
23	507592	238.86050009479	1
23	514275	242.002965165675	2
23	514277	242.002998765675	1
23	514979	242.324552137848	2
23	514980	242.324585737848	1
23	516011	242.800443789954	2
23	516012	242.800477389954	1
23	517429	243.442831065274	2
23	517430	243.442864665274	1
23	523674	246.401732670865	2
23	523675	246.401766270865	1
23	529904	249.360393673623	2
23	529905	249.360427273623	1
23	536558	252.500396185123	2
23	536559	252.500429785123	1
23	537271	252.823812053867	2
23	537276	252.823845653867	1
23	538364	253.303976681149	2
23	538365	253.304010281149	1
23	539726	253.940931709334	2
23	539727	253.940965309334	1
23	545971	256.902383019619	2
23	545972	256.902416619619	1
23	552221	259.860813481379	2
23	552226	259.860847081379	1
23	558886	263.002015936688	2
23	558887	263.002049536688	1
23	559609	263.324559952338	2
23	559610	263.324593552338	1
23	560646	263.801328867201	2
23	560647	263.801362467201	1
23	562059	264.443608863011	2
23	562060	264.443642463011	1
23	568299	267.403585926197	2
23	568300	267.403619526197	1
23	574564	270.362770993807	2
23	574565	270.362804593807	1
23	581208	273.502989605212	2
23	581209	273.503023205212	1
23	581916	273.82414883022	2
23	581917	273.82418243022	1
23	582969	274.302630535596	2
23	582970	274.302664135596	1
23	584371	274.944484454672	2
23	584372	274.944518054672	1
23	590626	277.90496088751	2
23	590627	277.90499448751	1
23	596876	280.864019226814	2
23	596877	280.864052826814	1
23	603521	284.001250900053	2
23	603522	284.001284500053	1
23	604239	284.324544161982	2
23	604240	284.324577761982	1
23	605301	284.80486882225	2
23	605302	284.80490242225	1
23	606663	285.441336461599	2
23	606665	285.441370061599	1
23	612914	288.401803174982	2
23	612915	288.401836774982	1
23	619174	291.363114944231	2
23	619175	291.363148544231	1
23	625818	294.501609444838	2
23	625823	294.501643044838	1
23	626536	294.822088776398	2
23	626537	294.822122376398	1
23	627589	295.300898240876	2
23	627590	295.300931840876	1
23	628981	295.943630033659	2
23	628982	295.943663633659	1
23	635226	298.902180549101	2
23	635227	298.902214149101	1
23	641461	301.86060274294	2
23	641462	301.86063634294	1
23	648121	305.000598425985	2
23	648122	305.000632025985	1
23	648859	305.322957085116	2
23	648860	305.322990685116	1
23	649901	305.801479560719	2
23	649902	305.801513160719	1
23	651314	306.444284295224	2
23	651315	306.444317895224	1
23	657554	309.40300466395	2
23	657555	309.40303826395	1
23	663789	312.361483563067	2
23	663790	312.361517163067	1
23	670448	315.502160833027	2
23	670449	315.502194433027	1
23	671136	315.820233758434	2
23	671137	315.820267358434	1
23	672204	316.300599519527	2
23	672205	316.300633119527	1
23	673626	316.944440580891	2
23	673627	316.944474180891	1
23	679841	319.900275622627	2
23	679842	319.900309222627	1
23	686125	322.864177102502	2
23	686127	322.864210702502	1
23	692746	326.000762805708	2
23	692747	326.000796405708	1
23	693469	326.323506830616	2
23	693470	326.323540430616	1
23	694531	326.803558096666	2
23	694532	326.803591696666	1
23	695904	327.440009572395	2
23	695905	327.440043172395	1
23	702184	330.402008502384	2
23	702185	330.402042102384	1
23	708429	333.363555021281	2
23	708430	333.363588621281	1
23	715088	336.504008104581	2
23	715089	336.504041704581	1
23	715796	336.824693861534	2
23	715797	336.824727461534	1
23	716852	337.303334699286	2
23	716855	337.303368299286	1
23	718241	337.942826792591	2
23	718242	337.942860392591	1
23	724466	340.900152518622	2
23	724467	340.900186118622	1
23	730751	343.864828552292	2
23	730752	343.864862152292	1
23	737386	347.002632481814	2
23	737387	347.002666081814	1
23	738114	347.324703084431	2
23	738115	347.324736684431	1
23	739171	347.804002722648	2
23	739172	347.804036322648	1
23	740534	348.440538947046	2
23	740535	348.440572547046	1
23	746794	351.401630205514	2
23	746795	351.401663805514	1
23	753059	354.363981628919	2
23	753060	354.364015228919	1
23	759678	357.500017553477	2
23	759679	357.500051153477	1
23	760416	357.824214962671	2
23	760417	357.824248562671	1
23	761484	358.303668532035	2
23	761485	358.303702132035	1
23	762851	358.940834056842	2
23	762852	358.940867656842	1
23	769121	361.904213856773	2
23	769122	361.904247456773	1
23	775336	364.860535175131	2
23	775337	364.860568775131	1
23	782001	368.000277682184	2
23	782002	368.000311282184	1
23	782724	368.323836586111	2
23	782725	368.323870186111	1
23	783761	368.800010419387	2
23	783762	368.800044019387	1
23	785154	369.440768199111	2
23	785155	369.440801799111	1
23	791433	372.403365790739	2
23	791435	372.403399390739	1
23	797664	375.361480004388	2
23	797665	375.361513604388	1
23	804343	378.504259419645	2
23	804344	378.504293019645	1
23	805041	378.822692579511	2
23	805042	378.822726179511	1
23	806079	379.300281555034	2
23	806080	379.300315155034	1
23	807501	379.944130583998	2
23	807502	379.944164183998	1
23	813731	382.902360656473	2
23	813732	382.902394256473	1
23	819981	385.863217605485	2
23	819982	385.863251205485	1
24	0	0	1
24	775360	364.862939082066	2
24	775362	364.862972682066	1
25	0	0	1
25	1063	0.5023680402	2
25	1064	0.5024016402	1
25	1781	0.823199605085	2
25	1782	0.823233205085	1
25	2844	1.301620705021	2
25	2845	1.301654305021	1
25	4236	1.943333833556	2
25	4241	1.943367433556	1
25	10486	4.902404467681	2
25	10487	4.902438067681	1
25	16721	7.861487184758	2
25	16722	7.861520784758	1
25	23386	11.002541577251	2
25	23387	11.002575177251	1
25	24104	11.322845503722	2
25	24105	11.322879103722	1
25	25171	11.80382455849	2
25	25172	11.80385815849	1
25	26534	12.441726758393	2
25	26535	12.441760358393	1
25	32804	15.402347485938	2
25	32805	15.402381085938	1
25	39049	18.361980298519	2
25	39050	18.362013898519	1
25	45708	21.504311548903	2
25	45709	21.504345148903	1
25	46416	21.823197362582	2
25	46417	21.823230962582	1
25	47459	22.301718027497	2
25	47460	22.301751627497	1
25	48861	22.94362797184	2
25	48862	22.94366157184	1
25	55126	25.90462581715	2
25	55127	25.90465941715	1
25	61375	28.864795833015	2
25	61377	28.864829433015	1
25	68016	32.001881132907	2
25	68017	32.001914732907	1
25	68739	32.324951725031	2
25	68740	32.324985325031	1
25	69796	32.803417864812	2
25	69797	32.803451464812	1
25	71159	33.441802727797	2
25	71164	33.441836327797	1
25	77419	36.401743913296	2
25	77420	36.401777513296	1
25	83674	39.362230677537	2
25	83675	39.362264277537	1
25	90333	42.503242991548	2
25	90334	42.503276591548	1
25	91026	42.822599761889	2
25	91027	42.822633361889	1
25	92097	43.302723236773	2
25	92100	43.302756836773	1
25	93466	43.940873860037	2
25	93467	43.940907460037	1
25	99741	46.903165310047	2
25	99742	46.903198910047	1
25	105996	49.864679160396	2
25	105997	49.864712760396	1
25	112631	53.001405764837	2
25	112632	53.001439364837	1
25	113339	53.323031540668	2
25	113340	53.323065140668	1
25	114416	53.803981597066	2
25	114417	53.804015197066	1
25	115804	54.441106982235	2
25	115805	54.441140582235	1
25	122054	57.401977719143	2
25	122055	57.402011319143	1
25	128279	60.360830239105	2
25	128280	60.360863839105	1
25	134932	63.500425334014	2
25	134934	63.500458934014	1
25	135641	63.822015130015	2
25	135642	63.822048730015	1
25	136724	64.303011145879	2
25	136729	64.303044745879	1
25	138126	64.944574315457	2
25	138127	64.944607915457	1
25	144351	67.901795553286	2
25	144352	67.901829153286	1
25	150621	70.86459273224	2
25	150622	70.86462633224	1
25	157286	74.004887589106	2
25	157287	74.004921189106	1
25	157974	74.324075996958	2
25	157975	74.324109596958	1
25	159031	74.803020387731	2
25	159032	74.803053987731	1
25	160404	75.440345913297	2
25	160409	75.440379513297	1
25	166694	78.404654197252	2
25	166695	78.404687797252	1
25	172919	81.361326516622	2
25	172920	81.361360116622	1
25	179588	84.503800245986	2
25	179589	84.503833845986	1
25	180281	84.823872504792	2
25	180282	84.823906104792	1
25	181359	85.303934300167	2
25	181360	85.303967900167	1
25	182726	85.941479749187	2
25	182727	85.941513349187	1
25	188986	88.902875308549	2
25	188987	88.902908908549	1
25	195251	91.86461727771	2
25	195252	91.86465087771	1
25	201891	95.003236089854	2
25	201892	95.003269689854	1
25	202579	95.320255036568	2
25	202580	95.320288636568	1
25	203661	95.802616823424	2
25	203662	95.802650423424	1
25	205039	96.440582793076	2
25	205040	96.440616393076	1
25	211303	99.403217095579	2
25	211305	99.403250695579	1
25	217539	102.361471330806	2
25	217540	102.361504930806	1
25	224188	105.500981870737	2
25	224189	105.501015470737	1
25	224921	105.823905964212	2
25	224922	105.823939564212	1
25	225984	106.303004668434	2
25	225985	106.303038268434	1
25	227346	106.942716763203	2
25	227347	106.942750363203	1
25	233611	109.903257335306	2
25	233612	109.903290935306	1
25	239836	112.861480638842	2
25	239837	112.861514238842	1
25	246505	116.000786407078	2
25	246507	116.000820007078	1
25	247204	116.320702197589	2
25	247205	116.320735797589	1
25	248281	116.802413138876	2
25	248282	116.802446738876	1
25	249674	117.440968116455	2
25	249675	117.441001716455	1
25	255909	120.400434776718	2
25	255910	120.400468376718	1
25	262169	123.361700503742	2
25	262170	123.361734103742	1
25	268818	126.502104926704	2
25	268819	126.502138526704	1
25	269546	126.824136566117	2
25	269547	126.824170166117	1
25	270584	127.300816318308	2
25	270585	127.300849918308	1
25	271991	127.944226822598	2
25	271992	127.944260422598	1
25	278251	130.904578235046	2
25	278252	130.904611835046	1
25	284490	133.862829225491	2
25	284492	133.862862825491	1
25	291121	137.000200085369	2
25	291122	137.000233685369	1
25	291859	137.324172931917	2
25	291860	137.324206531917	1
25	292891	137.800163597052	2
25	292892	137.800197197052	1
25	294299	138.441366743679	2
25	294300	138.441400343679	1
25	300569	141.404812039949	2
25	300570	141.404845639949	1
25	306799	144.362417503271	2
25	306800	144.362451103271	1
25	313453	147.503431504528	2
25	313454	147.503465104528	1
25	314136	147.820970971045	2
25	314137	147.821004571045	1
25	315219	148.300571062305	2
25	315224	148.300604662305	1
25	316626	148.944787442703	2
25	316627	148.944821042703	1
25	322866	151.903552415827	2
25	322867	151.903586015827	1
25	329126	154.864821048772	2
25	329127	154.864854648772	1
25	335751	158.001784519603	2
25	335752	158.001818119603	1
25	336479	158.321514524054	2
25	336480	158.321548124054	1
25	337536	158.802659295455	2
25	337537	158.802692895455	1
25	338944	159.444263680791	2
25	338945	159.444297280791	1
25	345194	162.404841427609	2
25	345195	162.404875027609	1
25	351444	165.364741483775	2
25	351445	165.364775083775	1
25	358083	168.504132389728	2
25	358084	168.504165989728	1
25	358766	168.821016979205	2
25	358767	168.821050579205	1
25	359859	169.303370386466	2
25	359860	169.303403986466	1
25	361236	169.942951399588	2
25	361237	169.942984999588	1
25	367466	172.901614244538	2
25	367467	172.901647844538	1
25	373721	175.861087761038	2
25	373722	175.861121361038	1
25	380371	179.000269345501	2
25	380372	179.000302945501	1
25	381079	179.321315393912	2
25	381080	179.321348993912	1
25	382176	179.804751681023	2
25	382177	179.804785281023	1
25	383534	180.440262035173	2
25	383535	180.440295635173	1
25	389814	183.404362898462	2
25	389815	183.404396498462	1
25	396064	186.364873936307	2
25	396065	186.364907536307	1
25	402713	189.504520961131	2
25	402714	189.504554561131	1
25	403416	189.824154544011	2
25	403417	189.824188144011	1
25	404454	190.3000778186	2
25	404455	190.3001114186	1
25	405841	190.941387090206	2
25	405846	190.941420690206	1
25	412105	193.901298582578	2
25	412107	193.901332182578	1
25	418356	196.863008167449	2
25	418357	196.863041767449	1
25	425001	200.000761511038	2
25	425002	200.000795111038	1
25	425709	200.322904979079	2
25	425710	200.322938579079	1
25	426791	200.803437744756	2
25	426792	200.803471344756	1
25	428194	201.44441912723	2
25	428195	201.44445272723	1
25	434409	204.40083806759	2
25	434410	204.40087166759	1
25	440669	207.363057426588	2
25	440674	207.363091026588	1
25	447318	210.501909870408	2
25	447319	210.501943470408	1
25	448011	210.820996140733	2
25	448012	210.821029740733	1
25	449114	211.304748980154	2
25	449119	211.304782580154	1
25	450501	211.944590022041	2
25	450502	211.944623622041	1
25	456731	214.902604121377	2
25	456732	214.902637721377	1
25	462981	217.86217172552	2
25	462982	217.86220532552	1
25	469641	221.001616452662	2
25	469642	221.001650052662	1
25	470354	221.323670378387	2
25	470355	221.323703978387	1
25	471386	221.80057170499	2
25	471387	221.80060530499	1
25	472779	222.440524953685	2
25	472780	222.440558553685	1
25	479059	225.40459146402	2
25	479060	225.40462506402	1
25	485303	228.363919527411	2
25	485305	228.363953127411	1
25	491938	231.501264785568	2
25	491943	231.501298385568	1
25	492646	231.82222246861	2
25	492647	231.82225606861	1
25	493729	232.303735497929	2
25	493730	232.303769097929	1
25	495086	232.940408875892	2
25	495087	232.940442475892	1
25	501346	235.901585832788	2
25	501347	235.901619432788	1
25	507626	238.864817997228	2
25	507627	238.864851597228	1
25	514271	242.00294707068	2
25	514276	242.00298067068	1
25	514964	242.323681303981	2
25	514965	242.323714903981	1
25	516016	242.800724280493	2
25	516017	242.800757880493	1
25	517434	243.443995916031	2
25	517435	243.444029516031	1
25	523689	246.403655927947	2
25	523690	246.403689527947	1
25	529934	249.363026952407	2
25	529935	249.363060552407	1
25	536592	252.502976120502	2
25	536594	252.503009720502	1
25	537291	252.824643212415	2
25	537292	252.824676812415	1
25	538334	253.300838369089	2
25	538335	253.300871969089	1
25	539716	253.940635430735	2
25	539721	253.940669030735	1
25	545986	256.903533766118	2
25	545987	256.903567366118	1
25	552216	259.860499540347	2
25	552217	259.860533140347	1
25	558881	263.00169824174	2
25	558882	263.00173184174	1
25	559614	263.324939988486	2
25	559615	263.324973588486	1
25	560666	263.80411315121	2
25	560667	263.80414675121	1
25	562049	264.442449616834	2
25	562050	264.442483216834	1
25	568289	267.40253972924	2
25	568290	267.40257332924	1
25	574529	270.360115641943	2
25	574534	270.360149241943	1
25	581198	273.502742516724	2
25	581199	273.502776116724	1
25	581886	273.821505939057	2
25	581887	273.821539539057	1
25	582989	274.304662425894	2
25	582990	274.304696025894	1
25	584366	274.944086760606	2
25	584367	274.944120360606	1
25	590611	277.903608472504	2
25	590612	277.903642072504	1
25	596841	280.8606739895	2
25	596842	280.8607075895	1
25	603516	284.000770169786	2
25	603517	284.000803769786	1
25	604209	284.322834482138	2
25	604210	284.322868082138	1
25	605271	284.802865263026	2
25	605272	284.802898863026	1
25	606679	285.443302910692	2
25	606680	285.443336510692	1
25	612919	288.40242619576	2
25	612920	288.40245979576	1
25	619184	291.363849610582	2
25	619185	291.363883210582	1
25	625813	294.501075058412	2
25	625814	294.501108658412	1
25	626511	294.821102275632	2
25	626512	294.821135875632	1
25	627619	295.304518033062	2
25	627620	295.304551633062	1
25	628966	295.940163365835	2
25	628967	295.940196965835	1
25	635215	298.901058344616	2
25	635217	298.901091944616	1
25	641501	301.864978563418	2
25	641502	301.865012163418	1
25	648126	305.000896505483	2
25	648127	305.000930105483	1
25	648844	305.321066410055	2
25	648845	305.321100010055	1
25	649896	305.801034073465	2
25	649897	305.801067673465	1
25	651279	306.441089801007	2
25	651280	306.441123401007	1
25	657544	309.401772497868	2
25	657545	309.401806097868	1
25	663819	312.364286771304	2
25	663820	312.364320371304	1
25	670463	315.504298016682	2
25	670464	315.504331616682	1
25	671161	315.822555515452	2
25	671162	315.822589115452	1
25	672234	316.303960768727	2
25	672235	316.303994368727	1
25	673591	316.9402660819	2
25	673592	316.9402996819	1
25	679866	319.902904384084	2
25	679867	319.902937984084	1
25	686106	322.863488184432	2
25	686107	322.863521784432	1
25	692786	326.004772705319	2
25	692787	326.004806305319	1
25	693459	326.322697128883	2
25	693460	326.322730728883	1
25	694521	326.803366450594	2
25	694522	326.803400050594	1
25	695914	327.440879688151	2
25	695915	327.440913288151	1
25	702169	330.401475290515	2
25	702174	330.401508890515	1
25	708434	333.364026441281	2
25	708435	333.364060041281	1
25	715073	336.502193969354	2
25	715074	336.502227569354	1
25	715776	336.82283457586	2
25	715777	336.82286817586	1
25	716848	337.303333003046	2
25	716854	337.303366603046	1
25	718216	337.940288334988	2
25	718217	337.940321934988	1
25	724461	340.900065289658	2
25	724462	340.900098889658	1
25	730746	343.864435681027	2
25	730747	343.864469281027	1
25	737411	347.004827469875	2
25	737412	347.004861069875	1
25	738104	347.322887703577	2
25	738105	347.322921303577	1
25	739141	347.801897758414	2
25	739142	347.801931358414	1
25	740544	348.441286963889	2
25	740545	348.441320563889	1
25	746818	351.40474186702	2
25	746820	351.40477546702	1
25	753044	354.362370278277	2
25	753045	354.362403878277	1
25	759703	357.503233973813	2
25	759704	357.503267573813	1
25	760406	357.823174488343	2
25	760407	357.823208088343	1
25	761464	358.301633561904	2
25	761465	358.301667161904	1
25	762866	358.942049216783	2
25	762867	358.942082816783	1
25	769100	361.902689786197	2
25	769102	361.902723386197	1
25	775360	364.862939082066	2
25	775362	364.862972682066	1
25	782011	368.000886704179	2
25	782012	368.000920304179	1
25	782714	368.322566536696	2
25	782715	368.322600136696	1
25	783781	368.802365375701	2
25	783782	368.802398975701	1
25	785194	369.444700376885	2
25	785195	369.444733976885	1
25	791404	372.400320354381	2
25	791409	372.400353954381	1
25	797669	375.36224202471	2
25	797670	375.36227562471	1
25	804323	378.502439099406	2
25	804324	378.502472699406	1
25	805031	378.82149328719	2
25	805032	378.82152688719	1
25	806084	379.300547082012	2
25	806085	379.300580682012	1
25	807476	379.942528316294	2
25	807477	379.942561916294	1
25	813741	382.90248011844	2
25	813742	382.90251371844	1
25	819971	385.861207315279	2
25	819972	385.861240915279	1
26	0	0	1
26	1088	0.504029392819	2
26	1776	0.822910098956	1
26	48840	22.940069741991	2
26	48842	22.940103341991	1
26	471426	221.804852344271	2
26	472799	222.442453092489	1
26	775361	364.862953166943	2
26	782036	368.004823269977	1
27	0	0	1
27	1083	0.503995792819	2
27	1088	0.504029392819	1
27	1776	0.822910098956	2
27	1777	0.822943698956	1
27	2862	1.303088177504	2
27	2865	1.303121777504	1
27	4231	1.943265700161	2
27	4232	1.943299300161	1
27	10466	4.900593638571	2
27	10467	4.900627238571	1
27	16741	7.863835118513	2
27	16742	7.863868718513	1
27	23391	11.003077797837	2
27	23392	11.003111397837	1
27	24084	11.320699862916	2
27	24085	11.320733462916	1
27	25151	11.801799890295	2
27	25152	11.801833490295	1
27	26569	12.444720598755	2
27	26570	12.444754198755	1
27	32789	15.401084484905	2
27	32790	15.401118084905	1
27	39054	18.362315750982	2
27	39055	18.362349350982	1
27	45678	21.5007407043	2
27	45679	21.5007743043	1
27	46391	21.821347397182	2
27	46392	21.821380997182	1
27	47489	22.304804173273	2
27	47490	22.304837773273	1
27	48840	22.940069741991	2
27	48842	22.940103341991	1
27	55086	25.900223061487	2
27	55087	25.900256661487	1
27	61336	28.861164327373	2
27	61337	28.861197927373	1
27	67996	32.000060181116	2
27	67997	32.000093781116	1
27	68699	32.32022829821	2
27	68700	32.32026189821	1
27	69786	32.803312522853	2
27	69791	32.803346122853	1
27	71194	33.444844515179	2
27	71195	33.444878115179	1
27	77429	36.40375382432	2
27	77430	36.40378742432	1
27	83694	39.364446166627	2
27	83695	39.364479766627	1
27	90313	42.501669824366	2
27	90314	42.501703424366	1
27	91016	42.82191551444	2
27	91017	42.82194911444	1
27	92109	43.304358928684	2
27	92110	43.304392528684	1
27	93481	43.941582439598	2
27	93482	43.941616039598	1
27	99711	46.901192066376	2
27	99712	46.901225666376	1
27	105981	49.862981055591	2
27	105982	49.863014655591	1
27	112636	53.00160521495	2
27	112637	53.00163881495	1
27	113329	53.320426165304	2
27	113330	53.320459765304	1
27	114401	53.801825499379	2
27	114402	53.801859099379	1
27	115779	54.440043449594	2
27	115780	54.440077049594	1
27	122044	57.400799226431	2
27	122045	57.400832826431	1
27	128309	60.363732921437	2
27	128310	60.363766521437	1
27	134968	63.504371999596	2
27	134969	63.504405599596	1
27	135636	63.821838130871	2
27	135637	63.821871730871	1
27	136744	64.304291688181	2
27	136745	64.304325288181	1
27	138101	64.94040030547	2
27	138102	64.94043390547	1
27	144336	67.900927589461	2
27	144337	67.900961189461	1
27	150616	70.863706158337	2
27	150617	70.863739758337	1
27	157246	74.001554199893	2
27	157247	74.001587799893	1
27	157964	74.323530305029	2
27	157965	74.323563905029	1
27	159051	74.804447239538	2
27	159052	74.804480839538	1
27	160419	75.441400568722	2
27	160420	75.441434168722	1
27	166684	78.403543851939	2
27	166685	78.403577451939	1
27	172924	81.36225104583	2
27	172925	81.36228464583	1
27	179593	84.504875473385	2
27	179594	84.504909073385	1
27	180271	84.822491940515	2
27	180272	84.822525540515	1
27	181344	85.300601386725	2
27	181345	85.300634986725	1
27	182720	85.941331419925	2
27	182722	85.941365019925	1
27	188971	88.901404297464	2
27	188972	88.901437897464	1
27	195216	91.861233862041	2
27	195217	91.861267462041	1
27	201896	95.004005374388	2
27	201901	95.004038974388	1
27	202589	95.320511949742	2
27	202590	95.320545549742	1
27	203636	95.80059307758	2
27	203637	95.80062667758	1
27	205044	96.440695666446	2
27	205045	96.440729266446	1
27	211289	99.401795485445	2
27	211290	99.401829085445	1
27	217569	102.364883809781	2
27	217570	102.364917409781	1
27	224203	105.502661601653	2
27	224204	105.502695201653	1
27	224911	105.823232452963	2
27	224912	105.823266052963	1
27	225954	106.300376386397	2
27	225959	106.300409986397	1
27	227371	106.944430590057	2
27	227372	106.944464190057	1
27	233616	109.903825349762	2
27	233617	109.903858949762	1
27	239876	112.864727094753	2
27	239877	112.864760694753	1
27	246536	116.004490438787	2
27	246537	116.004524038787	1
27	247224	116.322399150936	2
27	247225	116.322432750936	1
27	248296	116.804010342605	2
27	248297	116.804043942605	1
27	249664	117.44062853648	2
27	249665	117.44066213648	1
27	255944	120.404912869425	2
27	255945	120.404946469425	1
27	262179	123.362179415075	2
27	262180	123.362213015075	1
27	268813	126.500994461072	2
27	268814	126.501028061072	1
27	269541	126.82388210525	2
27	269542	126.82391570525	1
27	270579	127.300561121587	2
27	270580	127.300594721587	1
27	271961	127.94013700366	2
27	271962	127.94017060366	1
27	278226	130.902144048881	2
27	278227	130.902177648881	1
27	284461	133.860535212978	2
27	284462	133.860568812978	1
27	291156	137.004128690935	2
27	291157	137.004162290935	1
27	291824	137.320039597616	2
27	291825	137.320073197616	1
27	292906	137.801921365872	2
27	292907	137.801954965872	1
27	294304	138.441850260177	2
27	294305	138.441883860177	1
27	300564	141.404524911582	2
27	300565	141.404558511582	1
27	306814	144.364273996368	2
27	306815	144.364307596368	1
27	313438	147.502594628397	2
27	313439	147.502628228397	1
27	314141	147.82168320067	2
27	314142	147.82171680067	1
27	315209	148.300417652947	2
27	315210	148.300451252947	1
27	316621	148.944437998169	2
27	316622	148.944471598169	1
27	322871	151.904214605547	2
27	322872	151.904248205547	1
27	329121	154.864242192571	2
27	329122	154.864275792571	1
27	335761	158.002380419913	2
27	335762	158.002414019913	1
27	336469	158.32109969985	2
27	336470	158.32113329985	1
27	337521	158.801357751446	2
27	337522	158.801391351446	1
27	338939	159.443479871115	2
27	338940	159.443513471115	1
27	345154	162.400574760744	2
27	345155	162.400608360744	1
27	351429	165.362386761601	2
27	351430	165.362420361601	1
27	358088	168.504609578995	2
27	358089	168.504643178995	1
27	358786	168.823988559601	2
27	358787	168.824022159601	1
27	359834	169.301123886642	2
27	359835	169.301157486642	1
27	361251	169.944892298229	2
27	361252	169.944925898229	1
27	367476	172.902925255054	2
27	367477	172.902958855054	1
27	373731	175.861925825084	2
27	373732	175.861959425084	1
27	380401	179.003867273362	2
27	380402	179.003900873362	1
27	381074	179.320882093827	2
27	381075	179.320915693827	1
27	382171	179.804619391487	2
27	382172	179.804652991487	1
27	383544	180.442032312695	2
27	383545	180.442065912695	1
27	389809	183.404226867689	2
27	389810	183.404260467689	1
27	396044	186.362095782004	2
27	396045	186.362129382004	1
27	402688	189.502179206071	2
27	402689	189.502212806071	1
27	403381	189.820064588424	2
27	403382	189.820098188424	1
27	404484	190.303863020708	2
27	404489	190.303896620708	1
27	405845	190.941407183218	2
27	405847	190.941440783218	1
27	412111	193.902132857019	2
27	412112	193.902166457019	1
27	418376	196.864463557578	2
27	418377	196.864497157578	1
27	424996	200.000272490763	2
27	424997	200.000306090763	1
27	425719	200.323799111041	2
27	425724	200.323832711041	1
27	426801	200.80486466808	2
27	426802	200.80489826808	1
27	428164	201.441851871313	2
27	428165	201.441885471313	1
27	434424	204.401728729215	2
27	434425	204.401762329215	1
27	440689	207.364407063092	2
27	440690	207.364440663092	1
27	447338	210.502788254083	2
27	447339	210.502821854083	1
27	448006	210.820833523315	2
27	448007	210.820867123315	1
27	449104	211.304132152027	2
27	449105	211.304165752027	1
27	450466	211.940678464225	2
27	450467	211.940712064225	1
27	456726	214.90244612748	2
27	456727	214.90247972748	1
27	462991	217.864293749531	2
27	462992	217.864327349531	1
27	469626	221.000520459664	2
27	469627	221.000554059664	1
27	470349	221.323225231961	2
27	470350	221.323258831961	1
27	471421	221.804818744271	2
27	471426	221.804852344271	1
27	472799	222.442453092489	2
27	472800	222.442486692489	1
27	479064	225.404848117313	2
27	479065	225.404881717313	1
27	485284	228.360639764462	2
27	485285	228.360673364462	1
27	491942	231.50128316308	2
27	491944	231.50131676308	1
27	492666	231.82329708918	2
27	492667	231.82333068918	1
27	493719	232.302464608765	2
27	493720	232.302498208765	1
27	495101	232.943129073161	2
27	495102	232.943162673161	1
27	501366	235.903444495561	2
27	501367	235.903478095561	1
27	507596	238.86064372067	2
27	507597	238.86067732067	1
27	514281	242.003732489065	2
27	514282	242.003766089065	1
27	514989	242.324947755364	2
27	514990	242.324981355364	1
27	516041	242.802752894578	2
27	516042	242.802786494578	1
27	517424	243.442238050649	2
27	517425	243.442271650649	1
27	523664	246.400904197021	2
27	523665	246.400937797021	1
27	529939	249.364229058037	2
27	529940	249.364262658037	1
27	536553	252.500090865117	2
27	536554	252.500124465117	1
27	537286	252.824364853328	2
27	537287	252.824398453328	1
27	538359	253.303261284644	2
27	538360	253.303294884644	1
27	539711	253.940184213931	2
27	539712	253.940217813931	1
27	546000	256.904686467701	2
27	546002	256.904720067701	1
27	552246	259.863324526149	2
27	552247	259.863358126149	1
27	558891	263.002155653704	2
27	558896	263.002189253704	1
27	559589	263.322554277806	2
27	559590	263.322587877806	1
27	560656	263.803133183778	2
27	560657	263.803166783778	1
27	562034	264.440821885051	2
27	562035	264.440855485051	1
27	568284	267.401770696794	2
27	568285	267.401804296794	1
27	574559	270.362559603077	2
27	574560	270.362593203077	1
27	581183	273.500125547706	2
27	581184	273.500159147706	1
27	581891	273.821700534129	2
27	581892	273.821734134129	1
27	582984	274.304124308375	2
27	582985	274.304157908375	1
27	584341	274.940307357495	2
27	584342	274.940340957495	1
27	590606	277.902945618099	2
27	590607	277.902979218099	1
27	596846	280.860844564394	2
27	596847	280.860878164394	1
27	603536	284.003918212646	2
27	603537	284.003951812646	1
27	604224	284.32342428605	2
27	604225	284.32345788605	1
27	605266	284.802225008426	2
27	605267	284.802258608426	1
27	606689	285.444149547304	2
27	606690	285.444183147304	1
27	612929	288.404206400327	2
27	612934	288.404240000327	1
27	619169	291.362565703236	2
27	619170	291.362599303236	1
27	625803	294.500275075395	2
27	625804	294.500308675395	1
27	626546	294.823179514604	2
27	626547	294.823213114604	1
27	627579	295.300290281606	2
27	627580	295.300323881606	1
27	628991	295.944365292081	2
27	628992	295.944398892081	1
27	635211	298.901041121061	2
27	635216	298.901074721061	1
27	641466	301.860864037328	2
27	641467	301.860897637328	1
27	648161	305.00390806549	2
27	648162	305.00394166549	1
27	648828	305.320026988006	2
27	648830	305.320060588006	1
27	649886	305.800408444682	2
27	649887	305.800442044682	1
27	651319	306.444319784363	2
27	651320	306.444353384363	1
27	657534	309.401579950777	2
27	657535	309.401613550777	1
27	663809	312.362409571301	2
27	663810	312.362443171301	1
27	670443	315.501811294106	2
27	670444	315.501844894106	1
27	671146	315.820346630662	2
27	671147	315.820380230662	1
27	672209	316.301748196823	2
27	672210	316.301781796823	1
27	673611	316.942517488758	2
27	673612	316.942551088758	1
27	679836	319.900094505358	2
27	679837	319.900128105358	1
27	686086	322.861030058558	2
27	686087	322.861063658558	1
27	692781	326.004525229338	2
27	692782	326.004558829338	1
27	693484	326.323675060273	2
27	693485	326.323708660273	1
27	694551	326.804718407626	2
27	694552	326.804752007626	1
27	695929	327.442750330876	2
27	695930	327.442783930876	1
27	702159	330.400579350815	2
27	702160	330.400612950815	1
27	708408	333.360145723767	2
27	708410	333.360179323767	1
27	715068	336.500759191385	2
27	715069	336.500792791385	1
27	715761	336.821284450168	2
27	715762	336.821318050168	1
27	716869	337.304039717095	2
27	716870	337.304073317095	1
27	718221	337.941127948343	2
27	718226	337.941161548343	1
27	724486	340.903739753097	2
27	724487	340.903773353097	1
27	730736	343.863038357897	2
27	730737	343.863071957897	1
27	737376	347.002501743708	2
27	737377	347.002535343708	1
27	738079	347.320102952414	2
27	738084	347.320136552414	1
27	739166	347.803655785708	2
27	739167	347.803689385708	1
27	740553	348.442542597842	2
27	740555	348.442576197842	1
27	746799	351.402553915166	2
27	746800	351.402587515166	1
27	753029	354.36037932042	2
27	753030	354.36041292042	1
27	759688	357.500975274971	2
27	759689	357.501008874971	1
27	760386	357.820597365899	2
27	760387	357.820630965899	1
27	761454	358.300576011518	2
27	761455	358.300609611518	1
27	762876	358.944210805893	2
27	762877	358.944244405893	1
27	769106	361.902785639041	2
27	769107	361.902819239041	1
27	775356	364.862919566943	2
27	775361	364.862953166943	1
27	782036	368.004823269977	2
27	782037	368.004856869977	1
27	782739	368.324639469859	2
27	782740	368.324673069859	1
27	783791	368.803506072807	2
27	783792	368.803539672807	1
27	785174	369.442168234296	2
27	785175	369.442201834296	1
27	791408	372.400320921903	2
27	791410	372.400354521903	1
27	797689	375.364431713988	2
27	797690	375.364465313988	1
27	804338	378.503879074244	2
27	804339	378.503912674244	1
27	805026	378.821396765389	2
27	805027	378.821430365389	1
27	806119	379.30492274617	2
27	806120	379.30495634617	1
27	807486	379.942901893463	2
27	807487	379.942935493463	1
27	813716	382.900255065154	2
27	813717	382.900288665154	1
27	819961	385.860399538508	2
27	819962	385.860433138508	1
28	0	0	1
28	1087	0.504004553762	2
28	1089	0.504038153762	1
28	48841	22.940090737276	2
28	55116	25.903575893744	1
28	471425	221.804826917371	2
28	471427	221.804860517371	1
29	0	0	1
29	1087	0.504004553762	2
29	1089	0.504038153762	1
29	1761	0.820716766428	2
29	1762	0.820750366428	1
29	2834	1.300748374319	2
29	2835	1.300781974319	1
29	4240	1.943353189368	2
29	4242	1.943386789368	1
29	10491	4.903443305931	2
29	10492	4.903476905931	1
29	16746	7.864068989098	2
29	16747	7.864102589098	1
29	23380	11.00083423759	2
29	23382	11.00086783759	1
29	24094	11.322035916488	2
29	24099	11.322069516488	1
29	25176	11.804720617604	2
29	25177	11.804754217604	1
29	26564	12.444640406463	2
29	26565	12.444674006463	1
29	32799	15.402280073117	2
29	32800	15.402313673117	1
29	39059	18.362827106538	2
29	39060	18.362860706538	1
29	45703	21.503902133246	2
29	45704	21.503935733246	1
29	46401	21.821842923015	2
29	46402	21.821876523015	1
29	47479	22.30394436387	2
29	47480	22.30397796387	1
29	48836	22.940057137276	2
29	48841	22.940090737276	1
29	55116	25.903575893744	2
29	55117	25.903609493744	1
29	61346	28.862290694125	2
29	61347	28.862324294125	1
29	68021	32.002455123704	2
29	68022	32.002488723704	1
29	68719	32.322045270471	2
29	68720	32.322078870471	1
29	69771	32.801903646224	2
29	69772	32.801937246224	1
29	71184	33.444143284579	2
29	71185	33.444176884579	1
29	77404	36.400123099783	2
29	77405	36.400156699783	1
29	83654	39.360523139427	2
29	83655	39.360556739427	1
29	90303	42.500145500042	2
29	90304	42.500179100042	1
29	91031	42.82346978205	2
29	91032	42.82350338205	1
29	92104	43.303108464479	2
29	92105	43.303142064479	1
29	93486	43.941945673396	2
29	93487	43.941979273396	1
29	99746	46.904453264051	2
29	99747	46.904486864051	1
29	106001	49.864917131178	2
29	106002	49.864950731178	1
29	112656	53.003569636003	2
29	112657	53.003603236003	1
29	113354	53.323516087466	2
29	113355	53.323549687466	1
29	114426	53.804960369234	2
29	114427	53.804993969234	1
29	115794	54.440500070312	2
29	115795	54.440533670312	1
29	122049	57.401165389157	2
29	122050	57.401198989157	1
29	128319	60.364613783043	2
29	128320	60.364647383043	1
29	134953	63.501165868778	2
29	134954	63.501199468778	1
29	135671	63.823726164799	2
29	135672	63.823759764799	1
29	136734	64.30357187868	2
29	136735	64.30360547868	1
29	138091	64.940246744731	2
29	138092	64.940280344731	1
29	144366	67.903544487772	2
29	144367	67.903578087772	1
29	150586	70.860600600882	2
29	150587	70.860634200882	1
29	157271	74.002518739071	2
29	157272	74.002552339071	1
29	157954	74.321088314207	2
29	157955	74.321121914207	1
29	159026	74.802478083897	2
29	159027	74.802511683897	1
29	160434	75.444395866677	2
29	160435	75.444429466677	1
29	166674	78.402728896705	2
29	166675	78.402762496705	1
29	172909	81.360636470104	2
29	172910	81.360670070104	1
29	179573	84.502814737211	2
29	179574	84.502848337211	1
29	180256	84.820704787399	2
29	180257	84.820738387399	1
29	181369	85.304865083152	2
29	181370	85.304898683152	1
29	182751	85.944646458362	2
29	182752	85.944680058362	1
29	188966	88.901283839073	2
29	188967	88.901317439073	1
29	195221	91.86149576824	2
29	195222	91.86152936824	1
29	201886	95.001928695341	2
29	201887	95.001962295341	1
29	202604	95.323135803549	2
29	202605	95.323169403549	1
29	203651	95.801902976867	2
29	203652	95.801936576867	1
29	205054	96.441788195148	2
29	205055	96.441821795148	1
29	211279	99.40123288526	2
29	211280	99.40126648526	1
29	217544	102.362176767348	2
29	217545	102.362210367348	1
29	224178	105.500135391135	2
29	224179	105.500168991135	1
29	224886	105.820844630565	2
29	224887	105.820878230565	1
29	225974	106.302345849248	2
29	225975	106.302379449248	1
29	227351	106.943698162504	2
29	227352	106.943731762504	1
29	233596	109.901685405299	2
29	233597	109.901719005299	1
29	239851	112.862467034804	2
29	239852	112.862500634804	1
29	246496	116.000188820475	2
29	246497	116.000222420475	1
29	247234	116.323564461516	2
29	247235	116.323598061516	1
29	248301	116.804887915077	2
29	248302	116.804921515077	1
29	249659	117.44056124993	2
29	249660	117.44059484993	1
29	255939	120.404654385165	2
29	255940	120.404687985165	1
29	262154	123.360342984173	2
29	262155	123.360376584173	1
29	268823	126.502928140662	2
29	268828	126.502961740662	1
29	269526	126.823422492706	2
29	269527	126.823456092706	1
29	270614	127.303484136673	2
29	270615	127.303517736673	1
29	271986	127.943890194234	2
29	271987	127.943923794234	1
29	278211	130.900475617164	2
29	278212	130.900509217164	1
29	284476	133.862101167665	2
29	284477	133.862134767665	1
29	291141	137.002954845398	2
29	291142	137.002988445398	1
29	291834	137.321189862728	2
29	291835	137.321223462728	1
29	292911	137.802561849165	2
29	292916	137.802595449165	1
29	294319	138.444435657725	2
29	294320	138.444469257725	1
29	300549	141.4040698746	2
29	300550	141.4041034746	1
29	306789	144.361568475278	2
29	306790	144.361602075278	1
29	313443	147.502937692264	2
29	313444	147.502971292264	1
29	314151	147.822065673851	2
29	314152	147.822099273851	1
29	315239	148.304071987276	2
29	315240	148.304105587276	1
29	316616	148.943544414522	2
29	316617	148.943578014522	1
29	322851	151.902764921667	2
29	322852	151.902798521667	1
29	329116	154.863904425923	2
29	329117	154.863938025923	1
29	335786	158.004669199953	2
29	335787	158.004702799953	1
29	336484	158.322886420047	2
29	336485	158.322920020047	1
29	337551	158.804812051374	2
29	337552	158.804845651374	1
29	338929	159.441751009782	2
29	338930	159.441784609782	1
29	345169	162.401765047963	2
29	345170	162.401798647963	1
29	351419	165.361462854231	2
29	351420	165.361496454231	1
29	358093	168.504912232468	2
29	358094	168.504945832468	1
29	358761	168.82088051921	2
29	358762	168.82091411921	1
29	359839	169.301613866688	2
29	359840	169.301647466688	1
29	361231	169.941557246998	2
29	361232	169.941590846998	1
29	367471	172.901915980466	2
29	367472	172.901949580466	1
29	373711	175.860206731869	2
29	373712	175.860240331869	1
29	380396	179.003613287068	2
29	380397	179.003646887068	1
29	381084	179.321667536944	2
29	381085	179.321701136944	1
29	382156	179.803557857997	2
29	382157	179.803591457997	1
29	383564	180.444550656907	2
29	383565	180.444584256907	1
29	389794	183.402309263031	2
29	389795	183.402342863031	1
29	396049	186.362249307638	2
29	396050	186.362282907638	1
29	402683	189.501980939229	2
29	402684	189.502014539229	1
29	403386	189.820158027217	2
29	403387	189.820191627217	1
29	404494	190.304008902144	2
29	404495	190.304042502144	1
29	405871	190.944811399553	2
29	405872	190.944844999553	1
29	412091	193.900488371021	2
29	412092	193.900521971021	1
29	418361	196.863473054537	2
29	418362	196.863506654537	1
29	425026	200.003085298423	2
29	425027	200.003118898423	1
29	425729	200.32434800709	2
29	425730	200.32438160709	1
29	426781	200.803030859324	2
29	426782	200.803064459324	1
29	428189	201.444267246658	2
29	428190	201.444300846658	1
29	434444	204.403967007949	2
29	434445	204.404000607949	1
29	440694	207.364979150012	2
29	440695	207.365012750012	1
29	447308	210.501692711358	2
29	447309	210.501726311358	1
29	448026	210.823283025478	2
29	448027	210.823316625478	1
29	449079	211.301757477757	2
29	449080	211.301791077757	1
29	450491	211.943996528235	2
29	450492	211.944030128235	1
29	456751	214.904985898051	2
29	456752	214.905019498051	1
29	462996	217.864634012386	2
29	462997	217.864667612386	1
29	469646	221.003170420737	2
29	469647	221.003204020737	1
29	470364	221.324289892911	2
29	470365	221.324323492911	1
29	471425	221.804826917371	2
29	471427	221.804860517371	1
29	472794	222.441963461535	2
29	472795	222.441997061535	1
29	479069	225.404958438888	2
29	479070	225.404992038888	1
29	485319	228.364847911876	2
29	485320	228.364881511876	1
29	491963	231.503679927555	2
29	491964	231.503713527555	1
29	492651	231.822475481634	2
29	492652	231.822509081634	1
29	493709	232.301831945216	2
29	493710	232.301865545216	1
29	495106	232.94332245614	2
29	495107	232.94335605614	1
29	501336	235.900073229453	2
29	501337	235.900106829453	1
29	507616	238.863058916747	2
29	507617	238.863092516747	1
29	514286	242.004018996626	2
29	514287	242.004052596626	1
29	514974	242.32419254294	2
29	514975	242.32422614294	1
29	516036	242.80238385097	2
29	516037	242.80241745097	1
29	517404	243.440999832931	2
29	517405	243.441033432931	1
29	523679	246.401947923161	2
29	523680	246.401981523161	1
29	529924	249.362830442229	2
29	529925	249.362864042229	1
29	536572	252.501790784254	2
29	536574	252.501824384254	1
29	537266	252.823599260147	2
29	537267	252.823632860147	1
29	538369	253.30442439173	2
29	538370	253.30445799173	1
29	539741	253.942161397926	2
29	539742	253.942194997926	1
29	545966	256.901076942234	2
29	545967	256.901110542234	1
29	552236	259.861818302225	2
29	552237	259.861851902225	1
29	558871	263.000441554104	2
29	558872	263.000475154104	1
29	559594	263.323071121682	2
29	559595	263.323104721682	1
29	560636	263.800500925527	2
29	560637	263.800534525527	1
29	562064	264.444783756996	2
29	562065	264.444817356996	1
29	568319	267.40491029438	2
29	568320	267.40494389438	1
29	574533	270.360134951452	2
29	574535	270.360168551452	1
29	581188	273.500826327065	2
29	581189	273.500859927065	1
29	581921	273.824602435579	2
29	581922	273.824636035579	1
29	582979	274.303811480233	2
29	582980	274.303845080233	1
29	584361	274.943842728182	2
29	584362	274.943876328182	1
29	590616	277.904267659296	2
29	590617	277.904301259296	1
29	596871	280.863975175242	2
29	596872	280.864008775242	1
29	603511	284.000520214426	2
29	603512	284.000553814426	1
29	604219	284.323166462193	2
29	604220	284.323200062193	1
29	605276	284.803328713321	2
29	605277	284.803362313321	1
29	606669	285.442830964918	2
29	606670	285.442864564918	1
29	612904	288.400584661355	2
29	612905	288.400618261355	1
29	619164	291.36235311599	2
29	619165	291.36238671599	1
29	625843	294.503612722695	2
29	625844	294.503646322695	1
29	626521	294.82124770874	2
29	626522	294.82128130874	1
29	627609	295.302286997387	2
29	627610	295.302320597387	1
29	628976	295.941968941236	2
29	628977	295.942002541236	1
29	635231	298.902560172941	2
29	635232	298.902593772941	1
29	641486	301.863455644425	2
29	641487	301.863489244425	1
29	648146	305.002408254526	2
29	648147	305.002441854526	1
29	648854	305.32246130584	2
29	648855	305.32249490584	1
29	649916	305.803032357317	2
29	649921	305.803065957317	1
29	651284	306.4411383447	2
29	651285	306.4411719447	1
29	657569	309.404070569682	2
29	657570	309.404104169682	1
29	663779	312.361182278558	2
29	663780	312.361215878558	1
29	670468	315.504333187273	2
29	670469	315.504366787273	1
29	671131	315.820142506914	2
29	671132	315.820176106914	1
29	672219	316.302370532214	2
29	672220	316.302404132214	1
29	673606	316.941895340738	2
29	673607	316.941928940738	1
29	679861	319.902195676343	2
29	679862	319.902229276343	1
29	686101	322.863324287363	2
29	686102	322.863357887363	1
29	692751	326.001122739854	2
29	692752	326.001156339854	1
29	693454	326.322442027499	2
29	693455	326.322475627499	1
29	694526	326.803501172469	2
29	694527	326.803534772469	1
29	695939	327.443948797205	2
29	695940	327.443982397205	1
29	702179	330.40162127628	2
29	702180	330.40165487628	1
29	708444	333.364895805015	2
29	708445	333.364929405015	1
29	715058	336.500705712234	2
29	715063	336.500739312234	1
29	715756	336.820140168819	2
29	715757	336.820173768819	1
29	716834	337.30288609473	2
29	716835	337.30291969473	1
29	718246	337.943082013488	2
29	718247	337.943115613488	1
29	724495	340.904532883139	2
29	724497	340.904566483139	1
29	730726	343.862039134984	2
29	730727	343.862072734984	1
29	737381	347.002574879592	2
29	737382	347.002608479592	1
29	738099	347.321261846555	2
29	738100	347.321295446555	1
29	739176	347.804635854235	2
29	739177	347.804669454235	1
29	740529	348.440223294105	2
29	740530	348.440256894105	1
29	746809	351.40443698579	2
29	746810	351.40447058579	1
29	753049	354.363338100347	2
29	753050	354.363371700347	1
29	759718	357.50479916389	2
29	759719	357.50483276389	1
29	760381	357.820103676758	2
29	760382	357.820137276758	1
29	761494	358.304980993749	2
29	761495	358.305014593749	1
29	762836	358.940420509226	2
29	762837	358.940454109226	1
29	769091	361.901501591376	2
29	769092	361.901535191376	1
29	775351	364.862023379087	2
29	775352	364.862056979087	1
29	782016	368.00112225812	2
29	782017	368.00115585812	1
29	782704	368.320692571517	2
29	782705	368.320726171517	1
29	783801	368.804863098551	2
29	783802	368.804896698551	1
29	785179	369.442857699619	2
29	785180	369.442891299619	1
29	791444	372.404863265244	2
29	791445	372.404896865244	1
29	797684	375.364280895885	2
29	797685	375.364314495885	1
29	804313	378.501076957406	2
29	804314	378.501110557406	1
29	805006	378.820032866378	2
29	805007	378.820066466378	1
29	806094	379.301671407222	2
29	806095	379.301705007222	1
29	807461	379.940886276222	2
29	807462	379.940919876222	1
29	813721	382.901986527652	2
29	813722	382.902020127652	1
29	819996	385.863664969576	2
29	819997	385.863698569576	1
30	0	0	1
30	45718	21.504942746935	2
30	46406	21.822052460707	1
30	83683	39.362562258302	2
30	83685	39.362595858302	1
31	0	0	1
31	1058	0.502307396814	2
31	1059	0.502340996814	1
31	1771	0.822686866141	2
31	1772	0.822720466141	1
31	2854	1.303060478612	2
31	2863	1.303094078612	1
31	4216	1.940854547931	2
31	4217	1.940888147931	1
31	10476	4.901589915866	2
31	10477	4.901623515866	1
31	16731	7.862059100709	2
31	16732	7.862092700709	1
31	23371	11.000619099912	2
31	23372	11.000652699912	1
31	24074	11.320166111932	2
31	24075	11.320199711932	1
31	25161	11.803649952809	2
31	25162	11.803683552809	1
31	26544	12.443041264338	2
31	26545	12.443074864338	1
31	32809	15.403315391018	2
31	32810	15.403348991018	1
31	39069	18.364202142677	2
31	39070	18.364235742677	1
31	45713	21.504909146935	2
31	45718	21.504942746935	1
31	46406	21.822052460707	2
31	46407	21.822086060707	1
31	47484	22.30453277749	2
31	47485	22.30456637749	1
31	48856	22.942667328381	2
31	48857	22.942700928381	1
31	55121	25.903998979416	2
31	55122	25.904032579416	1
31	61351	28.862517137133	2
31	61352	28.862550737133	1
31	68001	32.000577421464	2
31	68002	32.000611021464	1
31	68709	32.321550338219	2
31	68710	32.321583938219	1
31	69765	32.801230315916	2
31	69767	32.801263915916	1
31	71163	33.441815806261	2
31	71165	33.441849406261	1
31	77424	36.403497875307	2
31	77425	36.403531475307	1
31	83683	39.362562258302	2
31	83685	39.362595858302	1
31	90338	42.503954200817	2
31	90339	42.503987800817	1
31	91036	42.824033346645	2
31	91037	42.824066946645	1
31	92084	43.302513603818	2
31	92085	43.302547203818	1
31	93471	43.94123267396	2
31	93472	43.94126627396	1
31	99736	46.902572563712	2
31	99737	46.902606163712	1
31	105991	49.864459004817	2
31	105992	49.864492604817	1
31	112621	53.000149751607	2
31	112622	53.000183351607	1
31	113349	53.323328388649	2
31	113350	53.323361988649	1
31	114391	53.800952834589	2
31	114392	53.800986434589	1
31	115784	54.440124723647	2
31	115785	54.440158323647	1
31	122034	57.400234031769	2
31	122035	57.400267631769	1
31	128304	60.363607150542	2
31	128305	60.363640750542	1
31	134938	63.500562136609	2
31	134939	63.500595736609	1
31	135666	63.823631135932	2
31	135667	63.823664735932	1
31	136739	64.304014466866	2
31	136740	64.304048066866	1
31	138111	64.942585686385	2
31	138112	64.942619286385	1
31	144356	67.902663342918	2
31	144357	67.902696942918	1
31	150626	70.864684639398	2
31	150627	70.864718239398	1
31	157276	74.003593131956	2
31	157277	74.003626731956	1
31	157959	74.321594586604	2
31	157960	74.321628186604	1
31	159021	74.801100519309	2
31	159022	74.801134119309	1
31	160439	75.444512901041	2
31	160440	75.444546501041	1
31	166654	78.400219877162	2
31	166655	78.400253477162	1
31	172939	81.364399283422	2
31	172940	81.364432883422	1
31	179578	84.503197313863	2
31	179579	84.503230913863	1
31	180261	84.821218117604	2
31	180262	84.821251717604	1
31	181354	85.30377450555	2
31	181355	85.30380810555	1
31	182736	85.944037092659	2
31	182737	85.944070692659	1
31	189001	88.90473910943	2
31	189002	88.90477270943	1
31	195241	91.862467953017	2
31	195242	91.862501553017	1
31	201876	95.000205898976	2
31	201877	95.000239498976	1
31	202609	95.323916370908	2
31	202610	95.323949970908	1
31	203666	95.804691280662	2
31	203667	95.804724880662	1
31	205069	96.443507203773	2
31	205070	96.443540803773	1
31	211314	99.40443850418	2
31	211315	99.40447210418	1
31	217529	102.360635435503	2
31	217530	102.360669035503	1
31	224213	105.5035159451	2
31	224214	105.5035495451	1
31	224901	105.822356033846	2
31	224902	105.822389633846	1
31	225958	106.30039123048	2
31	225960	106.30042483048	1
31	227366	106.944316650589	2
31	227367	106.944350250589	1
31	233591	109.901567953059	2
31	233592	109.901601553059	1
31	239841	112.862289175901	2
31	239846	112.862322775901	1
31	246511	116.001607364656	2
31	246512	116.001640964656	1
31	247214	116.320884677402	2
31	247215	116.320918277402	1
31	248271	116.80187206994	2
31	248276	116.80190566994	1
31	249694	117.444865479016	2
31	249695	117.444899079016	1
31	255934	120.404377256604	2
31	255935	120.404410856604	1
31	262164	123.361543288982	2
31	262165	123.361576888982	1
31	268837	126.503284191737	2
31	268839	126.503317791737	1
31	269536	126.8236688133	2
31	269537	126.8237024133	1
31	270594	127.300966673221	2
31	270595	127.301000273221	1
31	271971	127.941649864448	2
31	271972	127.941683464448	1
31	278236	130.902775969408	2
31	278237	130.902809569408	1
31	284481	133.862473823574	2
31	284482	133.862507423574	1
31	291151	137.004092110818	2
31	291152	137.004125710818	1
31	291829	137.320195346047	2
31	291830	137.320228946047	1
31	292926	137.80351703515	2
31	292927	137.80355063515	1
31	294289	138.440982484235	2
31	294290	138.441016084235	1
31	300544	141.403743611509	2
31	300545	141.403777211509	1
31	306794	144.362178563259	2
31	306795	144.362212163259	1
31	313458	147.504350498944	2
31	313459	147.504384098944	1
31	314156	147.822132406046	2
31	314157	147.822166006046	1
31	315244	148.304685615083	2
31	315245	148.304719215083	1
31	316601	148.940784215077	2
31	316602	148.940817815077	1
31	322876	151.904916013671	2
31	322877	151.904949613671	1
31	329091	154.861548169296	2
31	329092	154.861581769296	1
31	335766	158.002615779961	2
31	335767	158.002649379961	1
31	336489	158.324213390076	2
31	336490	158.324246990076	1
31	337526	158.802309267188	2
31	337527	158.802342867188	1
31	338924	159.441663884228	2
31	338925	159.441697484228	1
31	345179	162.401968148755	2
31	345180	162.402001748755	1
31	351424	165.361781713668	2
31	351425	165.361815313668	1
31	358063	168.501086378152	2
31	358064	168.501119978152	1
31	358756	168.820000933569	2
31	358757	168.820034533569	1
31	359869	169.304238696687	2
31	359870	169.304272296687	1
31	361221	169.941283237551	2
31	361222	169.941316837551	1
31	367500	172.904837003	2
31	367502	172.904870603	1
31	373716	175.860766851724	2
31	373717	175.860800451724	1
31	380386	179.00203136248	2
31	380387	179.00206496248	1
31	381114	179.324593600229	2
31	381115	179.324627200229	1
31	382146	179.802406534832	2
31	382147	179.802440134832	1
31	383569	180.44481271175	2
31	383570	180.44484631175	1
31	389804	183.402672544695	2
31	389805	183.402706144695	1
31	396069	186.364978350983	2
31	396070	186.365011950983	1
31	402698	189.503692961094	2
31	402699	189.503726561094	1
31	403411	189.823638943747	2
31	403412	189.823672543747	1
31	404488	190.303874327256	2
31	404490	190.303907927256	1
31	405856	190.941992158544	2
31	405857	190.942025758544	1
31	412126	193.904381309703	2
31	412127	193.904414909703	1
31	418346	196.861502871036	2
31	418347	196.861536471036	1
31	425006	200.000956010992	2
31	425007	200.000989610992	1
31	425699	200.321605037621	2
31	425700	200.321638637621	1
31	426771	200.801692187079	2
31	426772	200.801725787079	1
31	428169	201.442426058352	2
31	428170	201.442459658352	1
31	434429	204.402002552334	2
31	434430	204.402036152334	1
31	440664	207.362660550987	2
31	440665	207.362694150987	1
31	447303	210.501589364228	2
31	447304	210.501622964228	1
31	448031	210.82338136881	2
31	448032	210.82341496881	1
31	449118	211.304769602318	2
31	449120	211.304803202318	1
31	450476	211.941050604137	2
31	450477	211.941084204137	1
31	456721	214.902410309258	2
31	456722	214.902443909258	1
31	462986	217.86305360973	2
31	462987	217.86308720973	1
31	469636	221.001528476917	2
31	469637	221.001562076917	1
31	470344	221.322730994849	2
31	470345	221.322764594849	1
31	471406	221.80183856308	2
31	471407	221.80187216308	1
31	472789	222.441164121473	2
31	472790	222.441197721473	1
31	479049	225.401743166161	2
31	479050	225.401776766161	1
31	485279	228.360603002443	2
31	485280	228.360636602443	1
31	491953	231.502823236091	2
31	491954	231.502856836091	1
31	492636	231.820873787478	2
31	492637	231.820907387478	1
31	493704	232.301024388471	2
[...]
96	753057	354.363981628919	52
96	759676	357.500017553477	52
96	760414	357.824214962671	52
96	761482	358.303668532035	52
96	762849	358.940834056842	52
96	769119	361.904213856773	52
96	775334	364.860535175131	52
96	781999	368.000277682184	52
96	782722	368.323836586111	52
96	783759	368.800010419387	52
96	785152	369.440768199111	52
96	791431	372.403365790739	52
96	797662	375.361480004388	52
96	804341	378.504259419645	52
96	805039	378.822692579511	52
96	806077	379.300281555034	52
96	807499	379.944130583998	52
96	813729	382.902360656473	52
96	819979	385.863217605485	52
97	1091	0.504893091714	0
97	1784	0.823603163258	0
97	2827	1.30009394899	0
97	4249	1.944849045343	0
97	10469	4.901480700996	0
97	16709	7.86058100955	0
97	23374	11.000812464657	0
97	24096	11.322056983622	0
97	25134	11.800058570408	0
97	26557	12.44437286481	0
97	32817	15.40495169473	0
97	39062	18.363522371309	0
97	45681	21.501736167559	0
97	46379	21.820020240528	0
97	47492	22.304864597451	0
97	48874	22.944764353356	0
97	55094	25.902299279394	0
97	61339	28.861541430816	0
97	68004	32.000655276173	0
97	68712	32.321871615975	0
97	69759	32.801207093091	0
97	71172	33.442235719195	0
97	77432	36.404701048468	0
97	83657	39.361649678267	0
97	90321	42.502549035959	0
97	91044	42.824955708269	0
97	92117	43.304902900667	0
97	93459	43.940532147062	0
97	99714	46.901419999896	0
97	105959	49.860262540811	0
97	112643	53.002026867926	0
97	113332	53.322654300632	0
97	114408	53.802620919276	0
97	115812	54.44137287525	0
97	122037	57.400586901482	0
97	128312	60.363865174893	0
97	134956	63.501442849792	0
97	135654	63.823056637108	0
97	136712	64.301076991031	0
97	138094	64.940286603094	0
97	144374	67.904494805469	0
97	150594	70.860974504992	0
97	157262	74.001976166202	0
97	157967	74.323972532268	0
97	159044	74.804268030201	0
97	160406	75.440361751848	0
97	166662	78.402379130956	0
97	172942	81.364605961053	0
97	179556	84.501323247969	0
97	180264	84.822060262201	0
97	181347	85.301771124105	0
97	182729	85.941781574927	0
97	188989	88.903191950537	0
97	195224	91.861816119787	0
97	201879	95.000493051835	0
97	202572	95.320046875915	0
97	203674	95.804963334961	0
97	205047	96.441391644034	0
97	211307	99.404307954813	0
97	217552	102.363442314658	0
97	224191	105.501290296082	0
97	224904	105.822585606889	0
97	225977	106.302887950457	0
97	227339	106.942619972391	0
97	233624	109.904436415763	0
97	239863	112.863286505056	0
97	246519	116.002214365152	0
97	247207	116.320763711735	0
97	248284	116.802657471405	0
97	249687	117.443797450502	0
97	255912	120.400525473481	0
97	262182	123.362374424381	0
97	268841	126.504953258471	0
97	269529	126.823605688344	0
97	270587	127.300908111976	0
97	271974	127.942710086759	0
97	278239	130.902980922208	0
97	284464	133.860617476107	0
97	291134	137.002467892679	0
97	291842	137.323228043368	0
97	292919	137.803080914988	0
97	294307	138.442531226047	0
97	300537	141.403138778574	0
97	306802	144.362548992942	0
97	313461	147.504775320715	0
97	314169	147.824575724024	0
97	315212	148.300524171047	0
97	316584	148.940019300126	0
97	322839	151.90046224089	0
97	329094	154.861821422842	0
97	335774	158.004057592371	0
97	336447	158.320292837038	0
97	337509	158.800126159128	0
97	338917	159.44145380732	0
97	345182	162.402661680323	0
97	351402	165.360923692659	0
97	358071	168.503540374656	0
97	358774	168.822009222595	0
97	359852	169.302862251067	0
97	361244	169.944567163034	0
97	367489	172.90477956154	0
97	373724	175.861742868185	0
97	380374	179.000665379984	0
97	381102	179.323580288562	0
97	382164	179.804103671305	0
97	383537	180.441573620298	0
97	389817	183.40495226655	0
97	396027	186.360513772214	0
97	402676	189.500941997594	0
97	403389	189.821789336494	0
97	404472	190.30293744263	0
97	405834	190.940273388741	0
97	412119	193.902882975403	0
97	418349	196.861776713091	0
97	425014	200.002767709792	0
97	425702	200.322017426	0
97	426759	200.800890329428	0
97	428177	201.443073682464	0
97	434417	204.401614535557	0
97	440652	207.360042230705	0
97	447331	210.502521931616	0
97	448019	210.822254476007	0
97	449097	211.303965143312	0
97	450479	211.941993938014	0
97	456709	214.901163009374	0
97	462999	217.864760528806	0
97	469654	221.004333302872	0
97	470327	221.320506590845	0
97	471394	221.801332523192	0
97	472807	222.444276456744	0
97	479042	225.40145113321	0
97	485307	228.364014305378	0
97	491956	231.502945067458	0
97	492639	231.821202774473	0
97	493732	232.303797681526	0
97	495094	232.943076028576	0
97	501349	235.902076836489	0
97	507589	238.86046649479	0
97	514273	242.002965165675	0
97	514977	242.324552137848	0
97	516009	242.800443789954	0
97	517427	243.442831065274	0
97	523672	246.401732670865	0
97	529902	249.360393673623	0
97	536556	252.500396185123	0
97	537269	252.823812053867	0
97	538362	253.303976681149	0
97	539724	253.940931709334	0
97	545969	256.902383019619	0
97	552219	259.860813481379	0
97	558884	263.002015936688	0
97	559607	263.324559952338	0
97	560644	263.801328867201	0
97	562057	264.443608863011	0
97	568297	267.403585926197	0
97	574562	270.362770993807	0
97	581206	273.502989605212	0
97	581914	273.82414883022	0
97	582967	274.302630535596	0
97	584369	274.944484454672	0
97	590624	277.90496088751	0
97	596874	280.864019226814	0
97	603519	284.001250900053	0
97	604237	284.324544161982	0
97	605299	284.80486882225	0
97	606661	285.441336461599	0
97	612912	288.401803174982	0
97	619172	291.363114944231	0
97	625816	294.501609444838	0
97	626534	294.822088776398	0
97	627587	295.300898240876	0
97	628979	295.943630033659	0
97	635224	298.902180549101	0
97	641459	301.86060274294	0
97	648119	305.000598425985	0
97	648857	305.322957085116	0
97	649899	305.801479560719	0
97	651312	306.444284295224	0
97	657552	309.40300466395	0
97	663787	312.361483563067	0
97	670446	315.502160833027	0
97	671134	315.820233758434	0
97	672202	316.300599519527	0
97	673624	316.944440580891	0
97	679839	319.900275622627	0
97	686123	322.864177102502	0
97	692744	326.000762805708	0
97	693467	326.323506830616	0
97	694529	326.803558096666	0
97	695902	327.440009572395	0
97	702182	330.402008502384	0
97	708427	333.363555021281	0
97	715086	336.504008104581	0
97	715794	336.824693861534	0
97	716850	337.303334699286	0
97	718239	337.942826792591	0
97	724464	340.900152518622	0
97	730749	343.864828552292	0
97	737384	347.002632481814	0
97	738112	347.324703084431	0
97	739169	347.804002722648	0
97	740532	348.440538947046	0
97	746792	351.401630205514	0
97	753057	354.363981628919	0
97	759676	357.500017553477	0
97	760414	357.824214962671	0
97	761482	358.303668532035	0
97	762849	358.940834056842	0
97	769119	361.904213856773	0
97	775334	364.860535175131	0
97	781999	368.000277682184	0
97	782722	368.323836586111	0
97	783759	368.800010419387	0
97	785152	369.440768199111	0
97	791431	372.403365790739	0
97	797662	375.361480004388	0
97	804341	378.504259419645	0
97	805039	378.822692579511	0
97	806077	379.300281555034	0
97	807499	379.944130583998	0
97	813729	382.902360656473	0
97	819979	385.863217605485	0
98	1092	0.504893091714	52
98	1785	0.823603163258	52
98	2828	1.30009394899	52
98	4250	1.944849045343	52
98	10470	4.901480700996	52
98	16710	7.86058100955	52
98	23375	11.000812464657	52
98	24097	11.322056983622	52
98	25135	11.800058570408	52
98	26558	12.44437286481	52
98	32818	15.40495169473	52
98	39063	18.363522371309	52
98	45682	21.501736167559	52
98	46380	21.820020240528	52
98	47493	22.304864597451	52
98	48875	22.944764353356	52
98	55095	25.902299279394	52
98	61340	28.861541430816	52
98	68005	32.000655276173	52
98	68713	32.321871615975	52
98	69760	32.801207093091	52
98	71173	33.442235719195	52
98	77433	36.404701048468	52
98	83658	39.361649678267	52
98	90322	42.502549035959	52
98	91045	42.824955708269	52
98	92118	43.304902900667	52
98	93460	43.940532147062	52
98	99715	46.901419999896	52
98	105960	49.860262540811	52
98	112644	53.002026867926	52
98	113333	53.322654300632	52
98	114409	53.802620919276	52
98	115813	54.44137287525	52
98	122038	57.400586901482	52
98	128313	60.363865174893	52
98	134957	63.501442849792	52
98	135655	63.823056637108	52
98	136713	64.301076991031	52
98	138095	64.940286603094	52
98	144375	67.904494805469	52
98	150595	70.860974504992	52
98	157263	74.001976166202	52
98	157968	74.323972532268	52
98	159045	74.804268030201	52
98	160407	75.440361751848	52
98	166663	78.402379130956	52
98	172943	81.364605961053	52
98	179557	84.501323247969	52
98	180265	84.822060262201	52
98	181348	85.301771124105	52
98	182730	85.941781574927	52
98	188990	88.903191950537	52
98	195225	91.861816119787	52
98	201880	95.000493051835	52
98	202573	95.320046875915	52
98	203675	95.804963334961	52
98	205048	96.441391644034	52
98	211308	99.404307954813	52
98	217553	102.363442314658	52
98	224192	105.501290296082	52
98	224905	105.822585606889	52
98	225978	106.302887950457	52
98	227340	106.942619972391	52
98	233625	109.904436415763	52
98	239864	112.863286505056	52
98	246520	116.002214365152	52
98	247208	116.320763711735	52
98	248285	116.802657471405	52
98	249688	117.443797450502	52
98	255913	120.400525473481	52
98	262183	123.362374424381	52
98	268842	126.504953258471	52
98	269530	126.823605688344	52
98	270588	127.300908111976	52
98	271975	127.942710086759	52
98	278240	130.902980922208	52
98	284465	133.860617476107	52
98	291135	137.002467892679	52
98	291843	137.323228043368	52
98	292920	137.803080914988	52
98	294308	138.442531226047	52
98	300538	141.403138778574	52
98	306803	144.362548992942	52
98	313462	147.504775320715	52
98	314170	147.824575724024	52
98	315213	148.300524171047	52
98	316585	148.940019300126	52
98	322840	151.90046224089	52
98	329095	154.861821422842	52
98	335775	158.004057592371	52
98	336448	158.320292837038	52
98	337510	158.800126159128	52
98	338918	159.44145380732	52
98	345183	162.402661680323	52
98	351403	165.360923692659	52
98	358072	168.503540374656	52
98	358775	168.822009222595	52
98	359853	169.302862251067	52
98	361245	169.944567163034	52
98	367490	172.90477956154	52
98	373725	175.861742868185	52
98	380375	179.000665379984	52
98	381103	179.323580288562	52
98	382165	179.804103671305	52
98	383538	180.441573620298	52
98	389818	183.40495226655	52
98	396028	186.360513772214	52
98	402677	189.500941997594	52
98	403390	189.821789336494	52
98	404473	190.30293744263	52
98	405835	190.940273388741	52
98	412120	193.902882975403	52
98	418350	196.861776713091	52
98	425015	200.002767709792	52
98	425703	200.322017426	52
98	426760	200.800890329428	52
98	428178	201.443073682464	52
98	434418	204.401614535557	52
98	440653	207.360042230705	52
98	447332	210.502521931616	52
98	448020	210.822254476007	52
98	449098	211.303965143312	52
98	450480	211.941993938014	52
98	456710	214.901163009374	52
98	463000	217.864760528806	52
98	469655	221.004333302872	52
98	470328	221.320506590845	52
98	471395	221.801332523192	52
98	472808	222.444276456744	52
98	479043	225.40145113321	52
98	485308	228.364014305378	52
98	491957	231.502945067458	52
98	492640	231.821202774473	52
98	493733	232.303797681526	52
98	495095	232.943076028576	52
98	501350	235.902076836489	52
98	507590	238.86046649479	52
98	514274	242.002965165675	52
98	514978	242.324552137848	52
98	516010	242.800443789954	52
98	517428	243.442831065274	52
98	523673	246.401732670865	52
98	529903	249.360393673623	52
98	536557	252.500396185123	52
98	537270	252.823812053867	52
98	538363	253.303976681149	52
98	539725	253.940931709334	52
98	545970	256.902383019619	52
98	552220	259.860813481379	52
98	558885	263.002015936688	52
98	559608	263.324559952338	52
98	560645	263.801328867201	52
98	562058	264.443608863011	52
98	568298	267.403585926197	52
98	574563	270.362770993807	52
98	581207	273.502989605212	52
98	581915	273.82414883022	52
98	582968	274.302630535596	52
98	584370	274.944484454672	52
98	590625	277.90496088751	52
98	596875	280.864019226814	52
98	603520	284.001250900053	52
98	604238	284.324544161982	52
98	605300	284.80486882225	52
98	606662	285.441336461599	52
98	612913	288.401803174982	52
98	619173	291.363114944231	52
98	625817	294.501609444838	52
98	626535	294.822088776398	52
98	627588	295.300898240876	52
98	628980	295.943630033659	52
98	635225	298.902180549101	52
98	641460	301.86060274294	52
98	648120	305.000598425985	52
98	648858	305.322957085116	52
98	649900	305.801479560719	52
98	651313	306.444284295224	52
98	657553	309.40300466395	52
98	663788	312.361483563067	52
98	670447	315.502160833027	52
98	671135	315.820233758434	52
98	672203	316.300599519527	52
98	673625	316.944440580891	52
98	679840	319.900275622627	52
98	686124	322.864177102502	52
98	692745	326.000762805708	52
98	693468	326.323506830616	52
98	694530	326.803558096666	52
98	695903	327.440009572395	52
98	702183	330.402008502384	52
98	708428	333.363555021281	52
98	715087	336.504008104581	52
98	715795	336.824693861534	52
98	716851	337.303334699286	52
98	718240	337.942826792591	52
98	724465	340.900152518622	52
98	730750	343.864828552292	52
98	737385	347.002632481814	52
98	738113	347.324703084431	52
98	739170	347.804002722648	52
98	740533	348.440538947046	52
98	746793	351.401630205514	52
98	753058	354.363981628919	52
98	759677	357.500017553477	52
98	760415	357.824214962671	52
98	761483	358.303668532035	52
98	762850	358.940834056842	52
98	769120	361.904213856773	52
98	775335	364.860535175131	52
98	782000	368.000277682184	52
98	782723	368.323836586111	52
98	783760	368.800010419387	52
98	785153	369.440768199111	52
98	791432	372.403365790739	52
98	797663	375.361480004388	52
98	804342	378.504259419645	52
98	805040	378.822692579511	52
98	806078	379.300281555034	52
98	807500	379.944130583998	52
98	813730	382.902360656473	52
98	819980	385.863217605485	52
99	1092	0.504893091714	72
99	1785	0.823603163258	72
99	2828	1.30009394899	72
99	4250	1.944849045343	72
99	10470	4.901480700996	72
99	16710	7.86058100955	72
99	23375	11.000812464657	72
99	24097	11.322056983622	72
99	25135	11.800058570408	72
99	26558	12.44437286481	72
99	32818	15.40495169473	72
99	39063	18.363522371309	72
99	45682	21.501736167559	72
99	46380	21.820020240528	72
99	47493	22.304864597451	72
99	48875	22.944764353356	72
99	55095	25.902299279394	72
99	61340	28.861541430816	72
99	68005	32.000655276173	72
99	68713	32.321871615975	72
99	69760	32.801207093091	72
99	71173	33.442235719195	72
99	77433	36.404701048468	72
99	83658	39.361649678267	72
99	90322	42.502549035959	72
99	91045	42.824955708269	72
99	92118	43.304902900667	72
99	93460	43.940532147062	72
99	99715	46.901419999896	72
99	105960	49.860262540811	72
99	112644	53.002026867926	72
99	113333	53.322654300632	72
99	114409	53.802620919276	72
99	115813	54.44137287525	72
99	122038	57.400586901482	72
99	128313	60.363865174893	72
99	134957	63.501442849792	72
99	135655	63.823056637108	72
99	136713	64.301076991031	72
99	138095	64.940286603094	72
99	144375	67.904494805469	72
99	150595	70.860974504992	72
99	157263	74.001976166202	72
99	157968	74.323972532268	72
99	159045	74.804268030201	72
99	160407	75.440361751848	72
99	166663	78.402379130956	72
99	172943	81.364605961053	72
99	179557	84.501323247969	72
99	180265	84.822060262201	72
99	181348	85.301771124105	72
99	182730	85.941781574927	72
99	188990	88.903191950537	72
99	195225	91.861816119787	72
99	201880	95.000493051835	72
99	202573	95.320046875915	72
99	203675	95.804963334961	72
99	205048	96.441391644034	72
99	211308	99.404307954813	72
99	217553	102.363442314658	72
99	224192	105.501290296082	72
99	224905	105.822585606889	72
99	225978	106.302887950457	72
99	227340	106.942619972391	72
99	233625	109.904436415763	72
99	239864	112.863286505056	72
99	246520	116.002214365152	72
99	247208	116.320763711735	72
99	248285	116.802657471405	72
99	249688	117.443797450502	72
99	255913	120.400525473481	72
99	262183	123.362374424381	72
99	268842	126.504953258471	72
99	269530	126.823605688344	72
99	270588	127.300908111976	72
99	271975	127.942710086759	72
99	278240	130.902980922208	72
99	284465	133.860617476107	72
99	291135	137.002467892679	72
99	291843	137.323228043368	72
99	292920	137.803080914988	72
99	294308	138.442531226047	72
99	300538	141.403138778574	72
99	306803	144.362548992942	72
99	313462	147.504775320715	72
99	314170	147.824575724024	72
99	315213	148.300524171047	72
99	316585	148.940019300126	72
99	322840	151.90046224089	72
99	329095	154.861821422842	72
99	335775	158.004057592371	72
99	336448	158.320292837038	72
99	337510	158.800126159128	72
99	338918	159.44145380732	72
99	345183	162.402661680323	72
99	351403	165.360923692659	72
99	358072	168.503540374656	72
99	358775	168.822009222595	72
99	359853	169.302862251067	72
99	361245	169.944567163034	72
99	367490	172.90477956154	72
99	373725	175.861742868185	72
99	380375	179.000665379984	72
99	381103	179.323580288562	72
99	382165	179.804103671305	72
99	383538	180.441573620298	72
99	389818	183.40495226655	72
99	396028	186.360513772214	72
99	402677	189.500941997594	72
99	403390	189.821789336494	72
99	404473	190.30293744263	72
99	405835	190.940273388741	72
99	412120	193.902882975403	72
99	418350	196.861776713091	72
99	425015	200.002767709792	72
99	425703	200.322017426	72
99	426760	200.800890329428	72
99	428178	201.443073682464	72
99	434418	204.401614535557	72
99	440653	207.360042230705	72
99	447332	210.502521931616	72
99	448020	210.822254476007	72
99	449098	211.303965143312	72
99	450480	211.941993938014	72
99	456710	214.901163009374	72
99	463000	217.864760528806	72
99	469655	221.004333302872	72
99	470328	221.320506590845	72
99	471395	221.801332523192	72
99	472808	222.444276456744	72
99	479043	225.40145113321	72
99	485308	228.364014305378	72
99	491957	231.502945067458	72
99	492640	231.821202774473	72
99	493733	232.303797681526	72
99	495095	232.943076028576	72
99	501350	235.902076836489	72
99	507590	238.86046649479	72
99	514274	242.002965165675	72
99	514978	242.324552137848	72
99	516010	242.800443789954	72
99	517428	243.442831065274	72
99	523673	246.401732670865	72
99	529903	249.360393673623	72
99	536557	252.500396185123	72
99	537270	252.823812053867	72
99	538363	253.303976681149	72
99	539725	253.940931709334	72
99	545970	256.902383019619	72
99	552220	259.860813481379	72
99	558885	263.002015936688	72
99	559608	263.324559952338	72
99	560645	263.801328867201	72
99	562058	264.443608863011	72
99	568298	267.403585926197	72
99	574563	270.362770993807	72
99	581207	273.502989605212	72
99	581915	273.82414883022	72
99	582968	274.302630535596	72
99	584370	274.944484454672	72
99	590625	277.90496088751	72
99	596875	280.864019226814	72
99	603520	284.001250900053	72
99	604238	284.324544161982	72
99	605300	284.80486882225	72
99	606662	285.441336461599	72
99	612913	288.401803174982	72
99	619173	291.363114944231	72
99	625817	294.501609444838	72
99	626535	294.822088776398	72
99	627588	295.300898240876	72
99	628980	295.943630033659	72
99	635225	298.902180549101	72
99	641460	301.86060274294	72
99	648120	305.000598425985	72
99	648858	305.322957085116	72
99	649900	305.801479560719	72
99	651313	306.444284295224	72
99	657553	309.40300466395	72
99	663788	312.361483563067	72
99	670447	315.502160833027	72
99	671135	315.820233758434	72
99	672203	316.300599519527	72
99	673625	316.944440580891	72
99	679840	319.900275622627	72
99	686124	322.864177102502	72
99	692745	326.000762805708	72
99	693468	326.323506830616	72
99	694530	326.803558096666	72
99	695903	327.440009572395	72
99	702183	330.402008502384	72
99	708428	333.363555021281	72
99	715087	336.504008104581	72
99	715795	336.824693861534	72
99	716851	337.303334699286	72
99	718240	337.942826792591	72
99	724465	340.900152518622	72
99	730750	343.864828552292	72
99	737385	347.002632481814	72
99	738113	347.324703084431	72
99	739170	347.804002722648	72
99	740533	348.440538947046	72
99	746793	351.401630205514	72
99	753058	354.363981628919	72
99	759677	357.500017553477	72
99	760415	357.824214962671	72
99	761483	358.303668532035	72
99	762850	358.940834056842	72
99	769120	361.904213856773	72
99	775335	364.860535175131	72
99	782000	368.000277682184	72
99	782723	368.323836586111	72
99	783760	368.800010419387	72
99	785153	369.440768199111	72
99	791432	372.403365790739	72
99	797663	375.361480004388	72
99	804342	378.504259419645	72
99	805040	378.822692579511	72
99	806078	379.300281555034	72
99	807500	379.944130583998	72
99	813730	382.902360656473	72
99	819980	385.863217605485	72

